data_crystal

_cell_length_a    34.13400
_cell_length_b    31.90000
_cell_length_c    49.96600
_cell_angle_alpha 102.76800
_cell_angle_beta  90.00000
_cell_angle_gamma 90.00000

_symmetry_space_group_name_Hall 'P 1'
_symmetry_space_group_name_H-M  'P 1'

loop_
_symmetry_equiv_pos_as_xyz
 'x,y,z'

loop_
_atom_site_label
_atom_site_type_symbol
_atom_site_fract_x
_atom_site_fract_y
_atom_site_fract_z
_atom_site_charge
Zn         Zn      0.16771   0.45708   0.39887   0.8153940000
Zn         Zn      0.16771   0.04293   0.35114   0.8152910000
Zn         Zn      0.00091   0.20718   0.39888   0.8142320000
Zn         Zn      0.00091   0.29283   0.35113   0.8142810000
Zn         Zn      0.16562   0.04293   0.10114   0.8153250000
Zn         Zn      0.16562   0.45707   0.14886   0.8153790000
Zn         Zn     -0.00091   0.29283   0.10113   0.8142490000
Zn         Zn     -0.00091   0.20718   0.14888   0.8142500000
C          C       0.17715   0.42867   0.28952  -0.1423600000
C          C       0.17715   0.07133   0.46048  -0.1423620000
C          C       0.00996   0.17884   0.28952  -0.1417550000
C          C       0.00996   0.32117   0.46049  -0.1415620000
C          C       0.15619   0.07134   0.21048  -0.1424500000
C          C       0.15619   0.42867   0.03952  -0.1423610000
C          C       0.32337   0.32117   0.21049  -0.1417150000
C          C       0.32337   0.17884   0.03951  -0.1417710000
H          H       0.16674   0.46171   0.29276   0.1275950000
H          H       0.16674   0.03830   0.45725   0.1273670000
H          H      -0.00056   0.21183   0.29271   0.1271060000
H          H      -0.00056   0.28818   0.45730   0.1267680000
H          H       0.16659   0.03830   0.20724   0.1274660000
H          H       0.16659   0.46171   0.04276   0.1275790000
H          H       0.00056   0.28818   0.20730   0.1269110000
H          H       0.00056   0.21183   0.04270   0.1270240000
C          C       0.17774   0.42303   0.23942  -0.1369080000
C          C       0.17774   0.07697   0.01059  -0.1371720000
C          C       0.01081   0.17313   0.23940  -0.1374400000
C          C       0.01081   0.32688   0.01060  -0.1376290000
C          C       0.15559   0.07697   0.26059  -0.1371260000
C          C       0.15559   0.42304   0.48942  -0.1369520000
C          C       0.32252   0.32688   0.26060  -0.1375820000
C          C       0.32252   0.17313   0.48941  -0.1374600000
H          H       0.16654   0.45569   0.24238   0.1224670000
H          H       0.16654   0.04431   0.00762   0.1224160000
H          H      -0.00041   0.20577   0.24230   0.1221690000
H          H      -0.00041   0.29424   0.00769   0.1221310000
H          H       0.16679   0.04431   0.25763   0.1223180000
H          H       0.16679   0.45570   0.49238   0.1226090000
H          H       0.00041   0.29424   0.25770   0.1220190000
H          H       0.00041   0.20577   0.49231   0.1222290000
C          C       0.17274   0.43583   0.34000   0.5686380000
C          C       0.17274   0.06417   0.41001   0.5690990000
C          C       0.00533   0.18594   0.33999   0.5687200000
C          C       0.00533   0.31406   0.41002   0.5689590000
C          C       0.16059   0.06417   0.16001   0.5691160000
C          C       0.16059   0.43583   0.08999   0.5688950000
C          C       0.32800   0.31406   0.16001   0.5689690000
C          C       0.32800   0.18594   0.08999   0.5686750000
C          C       0.18256   0.41022   0.31191  -0.0543350000
C          C       0.18256   0.08979   0.43810  -0.0545420000
C          C       0.01536   0.16044   0.31193  -0.0532220000
C          C       0.01536   0.33957   0.43808  -0.0534070000
C          C       0.15077   0.08979   0.18810  -0.0544970000
C          C       0.15077   0.41022   0.06191  -0.0544280000
C          C       0.31797   0.33957   0.18809  -0.0533200000
C          C       0.31797   0.16044   0.06192  -0.0532320000
C          C       0.18487   0.40509   0.26254   0.0665730000
C          C       0.18487   0.09491   0.48747   0.0665280000
C          C       0.01787   0.15525   0.26255   0.0664940000
C          C       0.01787   0.34476   0.48746   0.0663780000
C          C       0.14846   0.09491   0.23747   0.0667010000
C          C       0.14846   0.40509   0.01253   0.0664400000
C          C       0.31547   0.34476   0.23745   0.0665160000
C          C       0.31547   0.15525   0.01255   0.0663770000
C          C       0.18397   0.39919   0.21309  -0.0320490000
C          C       0.18397   0.10082   0.03692  -0.0319010000
C          C       0.01715   0.14924   0.21310  -0.0300160000
C          C       0.01715   0.35076   0.03691  -0.0299920000
C          C       0.14937   0.10082   0.28692  -0.0319730000
C          C       0.14937   0.39919   0.46309  -0.0321430000
C          C       0.31619   0.35076   0.28691  -0.0302190000
C          C       0.31619   0.14924   0.46310  -0.0299590000
C          C       0.19969   0.36198   0.25850   0.0808540000
C          C       0.19969   0.13803   0.49151   0.0808910000
C          C       0.03277   0.11217   0.25858   0.0812490000
C          C       0.03277   0.38783   0.49143   0.0813810000
C          C       0.13364   0.13803   0.24150   0.0807050000
C          C       0.13364   0.36198   0.00850   0.0809440000
C          C       0.30056   0.38783   0.24143   0.0812130000
C          C       0.30056   0.11217   0.00857   0.0814240000
C          C       0.20602   0.34432   0.28190  -0.1411150000
C          C       0.20602   0.15568   0.46811  -0.1408720000
C          C       0.03909   0.09459   0.28199  -0.1406740000
C          C       0.03909   0.40542   0.46802  -0.1403410000
C          C       0.12731   0.15568   0.21811  -0.1409140000
C          C       0.12731   0.34433   0.03189  -0.1410570000
C          C       0.29424   0.40541   0.21801  -0.1405370000
C          C       0.29424   0.09459   0.03200  -0.1407000000
H          H       0.21796   0.31199   0.27901   0.1074870000
H          H       0.21796   0.18801   0.47101   0.1076730000
H          H       0.05110   0.06229   0.27914   0.1072280000
H          H       0.05110   0.43771   0.47086   0.1074150000
H          H       0.11537   0.18801   0.22101   0.1075680000
H          H       0.11537   0.31199   0.02900   0.1075370000
H          H       0.28223   0.43771   0.22086   0.1074120000
H          H       0.28223   0.06229   0.02914   0.1073830000
C          C       0.19724   0.36759   0.30790  -0.0986090000
C          C       0.19724   0.13242   0.44211  -0.0985570000
C          C       0.03020   0.11789   0.30797  -0.0997200000
C          C       0.03020   0.38212   0.44204  -0.0999150000
C          C       0.13610   0.13241   0.19210  -0.0984810000
C          C       0.13610   0.36759   0.05790  -0.0985740000
C          C       0.30313   0.38211   0.19203  -0.0998760000
C          C       0.30313   0.11789   0.05797  -0.0998000000
H          H       0.20155   0.35390   0.32576   0.1000360000
H          H       0.20155   0.14611   0.42425   0.1001530000
H          H       0.03451   0.10426   0.32586   0.1001990000
H          H       0.03451   0.39574   0.42415   0.1003530000
H          H       0.13179   0.14611   0.17424   0.1000870000
H          H       0.13179   0.35390   0.07576   0.1000700000
H          H       0.29883   0.39574   0.17415   0.1003030000
H          H       0.29883   0.10426   0.07586   0.1002610000
C          C       0.19933   0.35687   0.20922  -0.1052310000
C          C       0.19933   0.14313   0.04079  -0.1052620000
C          C       0.03253   0.10694   0.20927  -0.1057620000
C          C       0.03253   0.39307   0.04073  -0.1058300000
C          C       0.13400   0.14314   0.29080  -0.1051780000
C          C       0.13400   0.35687   0.45921  -0.1053220000
C          C       0.30080   0.39307   0.29074  -0.1056390000
C          C       0.30080   0.10693   0.45927  -0.1058510000
H          H       0.20513   0.33980   0.18823   0.1011850000
H          H       0.20513   0.16020   0.06177   0.1012310000
H          H       0.03837   0.08981   0.18831   0.1013560000
H          H       0.03837   0.41019   0.06169   0.1014110000
H          H       0.12821   0.16020   0.31178   0.1012920000
H          H       0.12821   0.33980   0.43823   0.1011870000
H          H       0.29497   0.41020   0.31169   0.1014150000
H          H       0.29497   0.08981   0.43831   0.1013170000
C          C       0.20736   0.33882   0.23126  -0.1459360000
C          C       0.20736   0.16118   0.01875  -0.1457060000
C          C       0.04052   0.08897   0.23136  -0.1459620000
C          C       0.04052   0.41104   0.01864  -0.1458020000
C          C       0.12597   0.16118   0.26875  -0.1457480000
C          C       0.12597   0.33882   0.48126  -0.1458190000
C          C       0.29282   0.41104   0.26865  -0.1458000000
C          C       0.29282   0.08897   0.48136  -0.1458570000
H          H       0.21976   0.30665   0.22812   0.1093330000
H          H       0.21976   0.19335   0.02188   0.1093910000
H          H       0.05296   0.05682   0.22828   0.1092970000
H          H       0.05296   0.44318   0.02173   0.1093620000
H          H       0.11357   0.19335   0.27188   0.1094510000
H          H       0.11357   0.30666   0.47813   0.1092590000
H          H       0.28037   0.44319   0.27173   0.1094460000
H          H       0.28037   0.05682   0.47828   0.1091700000
O          O       0.16455   0.47524   0.34273  -0.5815670000
O          O       0.16455   0.02477   0.40728  -0.5821350000
O          O       0.32945   0.22511   0.34272  -0.5824170000
O          O       0.32945   0.27490   0.40729  -0.5828480000
O          O       0.16879   0.02477   0.15728  -0.5820730000
O          O       0.16879   0.47524   0.09273  -0.5818690000
O          O       0.00389   0.27490   0.15729  -0.5827510000
O          O       0.00389   0.22511   0.09272  -0.5825140000
O          O       0.17063   0.45811   0.19187  -0.5660910000
O          O       0.17063   0.04188   0.05813  -0.5662250000
O          O       0.00394   0.20814   0.19185  -0.5653290000
O          O       0.00394   0.29187   0.05815  -0.5655100000
O          O       0.16270   0.04189   0.30813  -0.5663520000
O          O       0.16270   0.45812   0.44188  -0.5659620000
O          O       0.32939   0.29187   0.30816  -0.5656980000
O          O       0.32939   0.20814   0.44185  -0.5651580000
O          O       0.17259   0.41636   0.35988  -0.5476350000
O          O       0.17259   0.08365   0.39014  -0.5474710000
O          O       0.00592   0.16650   0.35989  -0.5477180000
O          O       0.00592   0.33350   0.39012  -0.5474570000
O          O       0.16074   0.08364   0.14013  -0.5475730000
O          O       0.16074   0.41636   0.10988  -0.5475760000
O          O       0.32741   0.33351   0.14012  -0.5475280000
O          O       0.32741   0.16650   0.10988  -0.5475150000
O          O       0.17077   0.39178   0.16531  -0.5673820000
O          O       0.17077   0.10823   0.08470  -0.5672950000
O          O       0.00406   0.14177   0.16530  -0.5666660000
O          O       0.00406   0.35823   0.08470  -0.5666330000
O          O       0.16256   0.10823   0.33470  -0.5671160000
O          O       0.16256   0.39177   0.41531  -0.5675230000
O          O       0.32927   0.35824   0.33470  -0.5665970000
O          O       0.32927   0.14177   0.41530  -0.5668570000
N          N       0.23037   0.46052   0.39944  -0.2148340000
N          N       0.23037   0.03948   0.35056  -0.2147450000
N          N       0.06349   0.21091   0.39933  -0.2186080000
N          N       0.06349   0.28909   0.35068  -0.2189080000
N          N       0.10296   0.03948   0.10056  -0.2147140000
N          N       0.10296   0.46052   0.14944  -0.2146760000
N          N       0.26985   0.28909   0.10068  -0.2187570000
N          N       0.26985   0.21091   0.14933  -0.2186960000
N          N       0.10495   0.45988   0.39661  -0.2111570000
N          N       0.10495   0.04012   0.35340  -0.2112120000
N          N       0.27136   0.20944   0.39668  -0.2110920000
N          N       0.27136   0.29057   0.35333  -0.2110820000
N          N       0.22839   0.04013   0.10340  -0.2111170000
N          N       0.22839   0.45988   0.14661  -0.2111170000
N          N       0.06197   0.29057   0.10333  -0.2111160000
N          N       0.06197   0.20944   0.14667  -0.2111490000
C          C       0.31272   0.46088   0.39863   0.0989600000
C          C       0.31272   0.03913   0.35139   0.0989950000
C          C       0.14582   0.21100   0.39853   0.1016920000
C          C       0.14582   0.28901   0.35149   0.1017600000
C          C       0.02061   0.03913   0.10138   0.0988510000
C          C       0.02061   0.46087   0.14863   0.0989460000
C          C       0.18751   0.28900   0.10148   0.1017200000
C          C       0.18751   0.21100   0.14852   0.1017090000
C          C       0.02265   0.46122   0.39776   0.1038340000
C          C       0.02265   0.03879   0.35224   0.1038390000
C          C       0.18908   0.21116   0.39770   0.1023370000
C          C       0.18908   0.28884   0.35230   0.1021850000
C          C       0.31069   0.03879   0.10225   0.1038810000
C          C       0.31069   0.46121   0.14776   0.1038270000
C          C       0.14426   0.28884   0.10230   0.1022210000
C          C       0.14426   0.21116   0.14771   0.1022600000
C          C       0.17445   0.41726   0.18867   0.5500680000
C          C       0.17445   0.08275   0.06134   0.5500520000
C          C       0.00772   0.16727   0.18865   0.5484730000
C          C       0.00772   0.33273   0.06135   0.5486250000
C          C       0.15888   0.08274   0.31134   0.5500170000
C          C       0.15888   0.41726   0.43867   0.5501520000
C          C       0.32562   0.33273   0.31135   0.5488270000
C          C       0.32562   0.16727   0.43866   0.5485130000
C          C       0.08549   0.48369   0.41819   0.0952770000
C          C       0.08549   0.01631   0.33182   0.0953520000
C          C       0.25191   0.23333   0.41824   0.0961430000
C          C       0.25191   0.26667   0.33177   0.0961280000
C          C       0.24784   0.01631   0.08182   0.0952570000
C          C       0.24784   0.48369   0.16819   0.0952770000
C          C       0.08142   0.26667   0.08178   0.0959820000
C          C       0.08142   0.23333   0.16823   0.0960530000
H          H       0.10371   0.00127   0.43478   0.1067390000
H          H       0.10371   0.49874   0.31523   0.1065650000
H          H       0.27013   0.25082   0.43484   0.1065210000
H          H       0.27013   0.24919   0.31516   0.1062800000
H          H       0.22962   0.49874   0.06523   0.1066720000
H          H       0.22962   0.00127   0.18477   0.1066990000
H          H       0.06320   0.24919   0.06516   0.1064560000
H          H       0.06320   0.25082   0.18485   0.1065030000
C          C       0.25067   0.49471   0.41336   0.0951930000
C          C       0.25067   0.00530   0.33665   0.0949470000
C          C       0.08385   0.24521   0.41304   0.0976070000
C          C       0.08385   0.25479   0.33697   0.0976150000
C          C       0.08266   0.00529   0.08665   0.0949980000
C          C       0.08266   0.49471   0.16336   0.0949200000
C          C       0.24948   0.25479   0.08697   0.0975430000
C          C       0.24948   0.24521   0.16304   0.0975070000
H          H       0.23337   0.02152   0.42459   0.0933040000
H          H       0.23337   0.47849   0.32542   0.0930990000
H          H       0.06662   0.27220   0.42412   0.0926780000
H          H       0.06662   0.22781   0.32588   0.0925110000
H          H       0.09996   0.47849   0.07541   0.0931570000
H          H       0.09996   0.02151   0.17458   0.0932770000
H          H       0.26672   0.22781   0.07588   0.0925550000
H          H       0.26672   0.27220   0.17412   0.0926480000
C          C       0.29143   0.42504   0.38467  -0.1694680000
C          C       0.29143   0.07496   0.36534  -0.1694810000
C          C       0.12446   0.17510   0.38476  -0.1699370000
C          C       0.12446   0.32491   0.36525  -0.1698880000
C          C       0.04191   0.07496   0.11533  -0.1693840000
C          C       0.04191   0.42504   0.13467  -0.1695140000
C          C       0.20887   0.32490   0.11525  -0.1699290000
C          C       0.20887   0.17510   0.13476  -0.1699370000
H          H       0.30605   0.39640   0.37312   0.1444010000
H          H       0.30605   0.10360   0.37689   0.1445880000
H          H       0.13905   0.14631   0.37337   0.1446790000
H          H       0.13905   0.35369   0.37663   0.1448310000
H          H       0.02729   0.10360   0.12688   0.1444830000
H          H       0.02729   0.39640   0.12312   0.1444370000
H          H       0.19428   0.35369   0.12663   0.1447680000
H          H       0.19428   0.14631   0.12337   0.1447310000
C          C       0.25075   0.42634   0.38555   0.0905450000
C          C       0.25075   0.07366   0.36446   0.0907900000
C          C       0.08379   0.17652   0.38562   0.0916980000
C          C       0.08379   0.32349   0.36439   0.0919900000
C          C       0.08258   0.07366   0.11446   0.0906570000
C          C       0.08258   0.42634   0.13554   0.0907040000
C          C       0.24954   0.32349   0.11438   0.0918930000
C          C       0.24954   0.17652   0.13562   0.0918600000
H          H       0.23319   0.39960   0.37459   0.0944990000
H          H       0.23319   0.10040   0.37543   0.0946580000
H          H       0.06616   0.14971   0.37483   0.0946920000
H          H       0.06616   0.35029   0.37518   0.0949020000
H          H       0.10015   0.10040   0.12542   0.0946260000
H          H       0.10015   0.39959   0.12459   0.0945610000
H          H       0.26717   0.35029   0.12518   0.0948080000
H          H       0.26717   0.14971   0.12482   0.0947330000
C          C       0.29138   0.49615   0.41331  -0.1834990000
C          C       0.29138   0.00385   0.33670  -0.1835480000
C          C       0.12457   0.24651   0.41300  -0.1853590000
C          C       0.12457   0.25350   0.33701  -0.1855240000
C          C       0.04195   0.00385   0.08669  -0.1834620000
C          C       0.04195   0.49615   0.16331  -0.1834630000
C          C       0.20877   0.25350   0.08701  -0.1853640000
C          C       0.20877   0.24651   0.16300  -0.1853410000
H          H       0.30628   0.02500   0.42424   0.1158330000
H          H       0.30628   0.47501   0.32577   0.1156160000
H          H       0.13955   0.27541   0.42376   0.1163100000
H          H       0.13955   0.22460   0.32625   0.1161150000
H          H       0.02705   0.47501   0.07576   0.1156810000
H          H       0.02705   0.02500   0.17424   0.1157460000
H          H       0.19378   0.22460   0.07624   0.1161670000
H          H       0.19378   0.27541   0.17375   0.1162240000
C          C       0.04483   0.48535   0.41948  -0.1783160000
C          C       0.04483   0.01465   0.33053  -0.1783830000
C          C       0.21125   0.23520   0.41946  -0.1782440000
C          C       0.21125   0.26481   0.33055  -0.1783190000
C          C       0.28850   0.01465   0.08053  -0.1782640000
C          C       0.28850   0.48535   0.16947  -0.1782410000
C          C       0.12208   0.26481   0.08055  -0.1782200000
C          C       0.12208   0.23520   0.16945  -0.1782810000
H          H       0.03071   0.00462   0.43760   0.1266120000
H          H       0.03071   0.49539   0.31240   0.1263420000
H          H       0.19712   0.25451   0.43756   0.1268010000
H          H       0.19712   0.24549   0.31245   0.1266530000
H          H       0.30262   0.49539   0.06240   0.1263780000
H          H       0.30262   0.00462   0.18760   0.1264280000
H          H       0.13621   0.24549   0.06244   0.1267020000
H          H       0.13621   0.25451   0.18755   0.1267770000
C          C       0.04312   0.43681   0.37525  -0.1737440000
C          C       0.04312   0.06320   0.37476  -0.1735560000
C          C       0.20953   0.18667   0.37522  -0.1739060000
C          C       0.20953   0.31334   0.37479  -0.1735190000
C          C       0.29022   0.06320   0.12475  -0.1735410000
C          C       0.29022   0.43681   0.12524  -0.1735930000
C          C       0.12380   0.31334   0.12478  -0.1736840000
C          C       0.12380   0.18666   0.12522  -0.1737850000
H          H       0.02771   0.41717   0.35777   0.1402180000
H          H       0.02771   0.08284   0.39224   0.1402870000
H          H       0.19411   0.16708   0.35773   0.1399170000
H          H       0.19411   0.33293   0.39228   0.1400130000
H          H       0.30562   0.08284   0.14224   0.1402260000
H          H       0.30562   0.41717   0.10776   0.1402020000
H          H       0.13922   0.33292   0.14228   0.1399990000
H          H       0.13922   0.16708   0.10772   0.1399900000
C          C       0.08388   0.43727   0.37551   0.0950360000
C          C       0.08388   0.06274   0.37450   0.0951650000
C          C       0.25029   0.18694   0.37555   0.0969180000
C          C       0.25029   0.31306   0.37446   0.0969830000
C          C       0.24946   0.06274   0.12449   0.0949930000
C          C       0.24946   0.43726   0.12551   0.0949680000
C          C       0.08304   0.31306   0.12447   0.0969970000
C          C       0.08304   0.18695   0.12554   0.0970210000
H          H       0.10076   0.41869   0.35850   0.0998660000
H          H       0.10076   0.08132   0.39152   0.0999770000
H          H       0.26716   0.16834   0.35853   0.0993560000
H          H       0.26716   0.33166   0.39148   0.0994560000
H          H       0.23258   0.08131   0.14151   0.0999620000
H          H       0.23258   0.41869   0.10849   0.0999410000
H          H       0.06617   0.33166   0.14147   0.0994410000
H          H       0.06617   0.16834   0.10854   0.0993670000
Zn         Zn      0.50105   0.45708   0.39887   0.8153940000
Zn         Zn      0.50105   0.04293   0.35114   0.8152910000
Zn         Zn      0.33424   0.20718   0.39888   0.8142320000
Zn         Zn      0.33424   0.29283   0.35113   0.8142810000
Zn         Zn      0.49895   0.04293   0.10114   0.8153250000
Zn         Zn      0.49895   0.45707   0.14886   0.8153790000
Zn         Zn      0.33242   0.29283   0.10113   0.8142490000
Zn         Zn      0.33242   0.20718   0.14888   0.8142500000
C          C       0.51048   0.42867   0.28952  -0.1423600000
C          C       0.51048   0.07133   0.46048  -0.1423620000
C          C       0.34330   0.17884   0.28952  -0.1417550000
C          C       0.34330   0.32117   0.46049  -0.1415620000
C          C       0.48952   0.07134   0.21048  -0.1424500000
C          C       0.48952   0.42867   0.03952  -0.1423610000
C          C       0.65670   0.32117   0.21049  -0.1417150000
C          C       0.65670   0.17884   0.03951  -0.1417710000
H          H       0.50007   0.46171   0.29276   0.1275950000
H          H       0.50007   0.03830   0.45725   0.1273670000
H          H       0.33277   0.21183   0.29271   0.1271060000
H          H       0.33277   0.28818   0.45730   0.1267680000
H          H       0.49993   0.03830   0.20724   0.1274660000
H          H       0.49993   0.46171   0.04276   0.1275790000
H          H       0.33389   0.28818   0.20730   0.1269110000
H          H       0.33389   0.21183   0.04270   0.1270240000
C          C       0.51107   0.42303   0.23942  -0.1369080000
C          C       0.51107   0.07697   0.01059  -0.1371720000
C          C       0.34415   0.17313   0.23940  -0.1374400000
C          C       0.34415   0.32688   0.01060  -0.1376290000
C          C       0.48893   0.07697   0.26059  -0.1371260000
C          C       0.48893   0.42304   0.48942  -0.1369520000
C          C       0.65585   0.32688   0.26060  -0.1375820000
C          C       0.65585   0.17313   0.48941  -0.1374600000
H          H       0.49988   0.45569   0.24238   0.1224670000
H          H       0.49988   0.04431   0.00762   0.1224160000
H          H       0.33292   0.20577   0.24230   0.1221690000
H          H       0.33292   0.29424   0.00769   0.1221310000
H          H       0.50012   0.04431   0.25763   0.1223180000
H          H       0.50012   0.45570   0.49238   0.1226090000
H          H       0.33374   0.29424   0.25770   0.1220190000
H          H       0.33374   0.20577   0.49231   0.1222290000
C          C       0.50607   0.43583   0.34000   0.5686380000
C          C       0.50608   0.06417   0.41001   0.5690990000
C          C       0.33866   0.18594   0.33999   0.5687200000
C          C       0.33866   0.31406   0.41002   0.5689590000
C          C       0.49393   0.06417   0.16001   0.5691160000
C          C       0.49392   0.43583   0.08999   0.5688950000
C          C       0.66134   0.31406   0.16001   0.5689690000
C          C       0.66134   0.18594   0.08999   0.5686750000
C          C       0.51590   0.41022   0.31191  -0.0543350000
C          C       0.51590   0.08979   0.43810  -0.0545420000
C          C       0.34870   0.16044   0.31193  -0.0532220000
C          C       0.34869   0.33957   0.43808  -0.0534070000
C          C       0.48410   0.08979   0.18810  -0.0544970000
C          C       0.48411   0.41022   0.06191  -0.0544280000
C          C       0.65131   0.33957   0.18809  -0.0533200000
C          C       0.65131   0.16044   0.06192  -0.0532320000
C          C       0.51820   0.40509   0.26254   0.0665730000
C          C       0.51820   0.09491   0.48747   0.0665280000
C          C       0.35120   0.15525   0.26255   0.0664940000
C          C       0.35120   0.34476   0.48746   0.0663780000
C          C       0.48180   0.09491   0.23747   0.0667010000
C          C       0.48180   0.40509   0.01253   0.0664400000
C          C       0.64880   0.34476   0.23745   0.0665160000
C          C       0.64880   0.15525   0.01255   0.0663770000
C          C       0.51730   0.39919   0.21309  -0.0320490000
C          C       0.51730   0.10082   0.03692  -0.0319010000
C          C       0.35048   0.14924   0.21310  -0.0300160000
C          C       0.35048   0.35076   0.03691  -0.0299920000
C          C       0.48270   0.10082   0.28692  -0.0319730000
C          C       0.48270   0.39919   0.46309  -0.0321430000
C          C       0.64952   0.35076   0.28691  -0.0302190000
C          C       0.64952   0.14924   0.46310  -0.0299590000
C          C       0.53303   0.36198   0.25850   0.0808540000
C          C       0.53303   0.13803   0.49151   0.0808910000
C          C       0.36611   0.11217   0.25858   0.0812490000
C          C       0.36611   0.38783   0.49143   0.0813810000
C          C       0.46697   0.13803   0.24150   0.0807050000
C          C       0.46697   0.36198   0.00850   0.0809440000
C          C       0.63389   0.38783   0.24143   0.0812130000
C          C       0.63389   0.11217   0.00857   0.0814240000
C          C       0.53936   0.34432   0.28190  -0.1411150000
C          C       0.53936   0.15568   0.46811  -0.1408720000
C          C       0.37242   0.09459   0.28199  -0.1406740000
C          C       0.37242   0.40542   0.46802  -0.1403410000
C          C       0.46064   0.15568   0.21811  -0.1409140000
C          C       0.46064   0.34433   0.03189  -0.1410570000
C          C       0.62758   0.40541   0.21801  -0.1405370000
C          C       0.62758   0.09459   0.03200  -0.1407000000
H          H       0.55130   0.31199   0.27901   0.1074870000
H          H       0.55130   0.18801   0.47101   0.1076730000
H          H       0.38443   0.06229   0.27914   0.1072280000
H          H       0.38443   0.43771   0.47086   0.1074150000
H          H       0.44870   0.18801   0.22101   0.1075680000
H          H       0.44870   0.31199   0.02900   0.1075370000
H          H       0.61557   0.43771   0.22086   0.1074120000
H          H       0.61557   0.06229   0.02914   0.1073830000
C          C       0.53057   0.36759   0.30790  -0.0986090000
C          C       0.53057   0.13242   0.44211  -0.0985570000
C          C       0.36354   0.11789   0.30797  -0.0997200000
C          C       0.36354   0.38212   0.44204  -0.0999150000
C          C       0.46943   0.13241   0.19210  -0.0984810000
C          C       0.46943   0.36759   0.05790  -0.0985740000
C          C       0.63646   0.38211   0.19203  -0.0998760000
C          C       0.63646   0.11789   0.05797  -0.0998000000
H          H       0.53488   0.35390   0.32576   0.1000360000
H          H       0.53488   0.14611   0.42425   0.1001530000
H          H       0.36784   0.10426   0.32586   0.1001990000
H          H       0.36784   0.39574   0.42415   0.1003530000
H          H       0.46512   0.14611   0.17424   0.1000870000
H          H       0.46512   0.35390   0.07576   0.1000700000
H          H       0.63216   0.39574   0.17415   0.1003030000
H          H       0.63216   0.10426   0.07586   0.1002610000
C          C       0.53267   0.35687   0.20922  -0.1052310000
C          C       0.53267   0.14313   0.04079  -0.1052620000
C          C       0.36587   0.10694   0.20927  -0.1057620000
C          C       0.36587   0.39307   0.04073  -0.1058300000
C          C       0.46733   0.14314   0.29080  -0.1051780000
C          C       0.46733   0.35687   0.45921  -0.1053220000
C          C       0.63413   0.39307   0.29074  -0.1056390000
C          C       0.63413   0.10693   0.45927  -0.1058510000
H          H       0.53846   0.33980   0.18823   0.1011850000
H          H       0.53846   0.16020   0.06177   0.1012310000
H          H       0.37170   0.08981   0.18831   0.1013560000
H          H       0.37170   0.41019   0.06169   0.1014110000
H          H       0.46154   0.16020   0.31178   0.1012920000
H          H       0.46154   0.33980   0.43823   0.1011870000
H          H       0.62830   0.41020   0.31169   0.1014150000
H          H       0.62830   0.08981   0.43831   0.1013170000
C          C       0.54069   0.33882   0.23126  -0.1459360000
C          C       0.54069   0.16118   0.01875  -0.1457060000
C          C       0.37385   0.08897   0.23136  -0.1459620000
C          C       0.37385   0.41104   0.01864  -0.1458020000
C          C       0.45931   0.16118   0.26875  -0.1457480000
C          C       0.45931   0.33882   0.48126  -0.1458190000
C          C       0.62615   0.41104   0.26865  -0.1458000000
C          C       0.62615   0.08897   0.48136  -0.1458570000
H          H       0.55310   0.30665   0.22812   0.1093330000
H          H       0.55310   0.19335   0.02188   0.1093910000
H          H       0.38630   0.05682   0.22828   0.1092970000
H          H       0.38630   0.44318   0.02173   0.1093620000
H          H       0.44690   0.19335   0.27188   0.1094510000
H          H       0.44690   0.30666   0.47813   0.1092590000
H          H       0.61370   0.44319   0.27173   0.1094460000
H          H       0.61370   0.05682   0.47828   0.1091700000
O          O       0.49788   0.47524   0.34273  -0.5815670000
O          O       0.49788   0.02477   0.40728  -0.5821350000
O          O       0.66278   0.22511   0.34272  -0.5824170000
O          O       0.66278   0.27490   0.40729  -0.5828480000
O          O       0.50212   0.02477   0.15728  -0.5820730000
O          O       0.50212   0.47524   0.09273  -0.5818690000
O          O       0.33722   0.27490   0.15729  -0.5827510000
O          O       0.33722   0.22511   0.09272  -0.5825140000
O          O       0.50396   0.45811   0.19187  -0.5660910000
O          O       0.50396   0.04188   0.05813  -0.5662250000
O          O       0.33727   0.20814   0.19185  -0.5653290000
O          O       0.33727   0.29187   0.05815  -0.5655100000
O          O       0.49603   0.04189   0.30813  -0.5663520000
O          O       0.49603   0.45812   0.44188  -0.5659620000
O          O       0.66273   0.29187   0.30816  -0.5656980000
O          O       0.66273   0.20814   0.44185  -0.5651580000
O          O       0.50593   0.41636   0.35988  -0.5476350000
O          O       0.50592   0.08365   0.39014  -0.5474710000
O          O       0.33926   0.16650   0.35989  -0.5477180000
O          O       0.33925   0.33350   0.39012  -0.5474570000
O          O       0.49408   0.08364   0.14013  -0.5475730000
O          O       0.49408   0.41636   0.10988  -0.5475760000
O          O       0.66075   0.33351   0.14012  -0.5475280000
O          O       0.66075   0.16650   0.10988  -0.5475150000
O          O       0.50410   0.39178   0.16531  -0.5673820000
O          O       0.50410   0.10823   0.08470  -0.5672950000
O          O       0.33739   0.14177   0.16530  -0.5666660000
O          O       0.33739   0.35823   0.08470  -0.5666330000
O          O       0.49590   0.10823   0.33470  -0.5671160000
O          O       0.49590   0.39177   0.41531  -0.5675230000
O          O       0.66261   0.35824   0.33470  -0.5665970000
O          O       0.66261   0.14177   0.41530  -0.5668570000
N          N       0.56370   0.46052   0.39944  -0.2148340000
N          N       0.56370   0.03948   0.35056  -0.2147450000
N          N       0.39682   0.21091   0.39933  -0.2186080000
N          N       0.39682   0.28909   0.35068  -0.2189080000
N          N       0.43630   0.03948   0.10056  -0.2147140000
N          N       0.43630   0.46052   0.14944  -0.2146760000
N          N       0.60318   0.28909   0.10068  -0.2187570000
N          N       0.60318   0.21091   0.14933  -0.2186960000
N          N       0.43828   0.45988   0.39661  -0.2111570000
N          N       0.43828   0.04012   0.35340  -0.2112120000
N          N       0.60469   0.20944   0.39668  -0.2110920000
N          N       0.60469   0.29057   0.35333  -0.2110820000
N          N       0.56172   0.04013   0.10340  -0.2111170000
N          N       0.56172   0.45988   0.14661  -0.2111170000
N          N       0.39531   0.29057   0.10333  -0.2111160000
N          N       0.39531   0.20944   0.14667  -0.2111490000
C          C       0.64606   0.46088   0.39863   0.0989600000
C          C       0.64606   0.03913   0.35139   0.0989950000
C          C       0.47916   0.21100   0.39853   0.1016920000
C          C       0.47916   0.28901   0.35149   0.1017600000
C          C       0.35394   0.03913   0.10138   0.0988510000
C          C       0.35394   0.46087   0.14863   0.0989460000
C          C       0.52085   0.28900   0.10148   0.1017200000
C          C       0.52085   0.21100   0.14852   0.1017090000
C          C       0.35598   0.46122   0.39776   0.1038340000
C          C       0.35598   0.03879   0.35224   0.1038390000
C          C       0.52241   0.21116   0.39770   0.1023370000
C          C       0.52241   0.28884   0.35230   0.1021850000
C          C       0.64402   0.03879   0.10225   0.1038810000
C          C       0.64402   0.46121   0.14776   0.1038270000
C          C       0.47759   0.28884   0.10230   0.1022210000
C          C       0.47759   0.21116   0.14771   0.1022600000
C          C       0.50779   0.41726   0.18867   0.5500680000
C          C       0.50779   0.08275   0.06134   0.5500520000
C          C       0.34105   0.16727   0.18865   0.5484730000
C          C       0.34105   0.33273   0.06135   0.5486250000
C          C       0.49222   0.08274   0.31134   0.5500170000
C          C       0.49222   0.41726   0.43867   0.5501520000
C          C       0.65895   0.33273   0.31135   0.5488270000
C          C       0.65895   0.16727   0.43866   0.5485130000
C          C       0.41882   0.48369   0.41819   0.0952770000
C          C       0.41882   0.01631   0.33182   0.0953520000
C          C       0.58524   0.23333   0.41824   0.0961430000
C          C       0.58524   0.26667   0.33177   0.0961280000
C          C       0.58118   0.01631   0.08182   0.0952570000
C          C       0.58118   0.48369   0.16819   0.0952770000
C          C       0.41476   0.26667   0.08178   0.0959820000
C          C       0.41476   0.23333   0.16823   0.0960530000
H          H       0.43705   0.00127   0.43478   0.1067390000
H          H       0.43705   0.49874   0.31523   0.1065650000
H          H       0.60347   0.25082   0.43484   0.1065210000
H          H       0.60347   0.24919   0.31516   0.1062800000
H          H       0.56295   0.49874   0.06523   0.1066720000
H          H       0.56295   0.00127   0.18477   0.1066990000
H          H       0.39653   0.24919   0.06516   0.1064560000
H          H       0.39653   0.25082   0.18485   0.1065030000
C          C       0.58400   0.49471   0.41336   0.0951930000
C          C       0.58400   0.00530   0.33665   0.0949470000
C          C       0.41718   0.24521   0.41304   0.0976070000
C          C       0.41718   0.25479   0.33697   0.0976150000
C          C       0.41600   0.00529   0.08665   0.0949980000
C          C       0.41600   0.49471   0.16336   0.0949200000
C          C       0.58282   0.25479   0.08697   0.0975430000
C          C       0.58282   0.24521   0.16304   0.0975070000
H          H       0.56670   0.02152   0.42459   0.0933040000
H          H       0.56670   0.47849   0.32542   0.0930990000
H          H       0.39995   0.27220   0.42412   0.0926780000
H          H       0.39995   0.22781   0.32588   0.0925110000
H          H       0.43330   0.47849   0.07541   0.0931570000
H          H       0.43330   0.02151   0.17458   0.0932770000
H          H       0.60005   0.22781   0.07588   0.0925550000
H          H       0.60005   0.27220   0.17412   0.0926480000
C          C       0.62476   0.42504   0.38467  -0.1694680000
C          C       0.62476   0.07496   0.36534  -0.1694810000
C          C       0.45779   0.17510   0.38476  -0.1699370000
C          C       0.45779   0.32491   0.36525  -0.1698880000
C          C       0.37524   0.07496   0.11533  -0.1693840000
C          C       0.37524   0.42504   0.13467  -0.1695140000
C          C       0.54221   0.32490   0.11525  -0.1699290000
C          C       0.54221   0.17510   0.13476  -0.1699370000
H          H       0.63938   0.39640   0.37312   0.1444010000
H          H       0.63938   0.10360   0.37689   0.1445880000
H          H       0.47239   0.14631   0.37337   0.1446790000
H          H       0.47239   0.35369   0.37663   0.1448310000
H          H       0.36062   0.10360   0.12688   0.1444830000
H          H       0.36062   0.39640   0.12312   0.1444370000
H          H       0.52761   0.35369   0.12663   0.1447680000
H          H       0.52761   0.14631   0.12337   0.1447310000
C          C       0.58408   0.42634   0.38555   0.0905450000
C          C       0.58408   0.07366   0.36446   0.0907900000
C          C       0.41713   0.17652   0.38562   0.0916980000
C          C       0.41713   0.32349   0.36439   0.0919900000
C          C       0.41592   0.07366   0.11446   0.0906570000
C          C       0.41592   0.42634   0.13554   0.0907040000
C          C       0.58288   0.32349   0.11438   0.0918930000
C          C       0.58288   0.17652   0.13562   0.0918600000
H          H       0.56652   0.39960   0.37459   0.0944990000
H          H       0.56652   0.10040   0.37543   0.0946580000
H          H       0.39950   0.14971   0.37483   0.0946920000
H          H       0.39950   0.35029   0.37518   0.0949020000
H          H       0.43348   0.10040   0.12542   0.0946260000
H          H       0.43348   0.39959   0.12459   0.0945610000
H          H       0.60050   0.35029   0.12518   0.0948080000
H          H       0.60050   0.14971   0.12482   0.0947330000
C          C       0.62472   0.49615   0.41331  -0.1834990000
C          C       0.62472   0.00385   0.33670  -0.1835480000
C          C       0.45790   0.24651   0.41300  -0.1853590000
C          C       0.45790   0.25350   0.33701  -0.1855240000
C          C       0.37528   0.00385   0.08669  -0.1834620000
C          C       0.37528   0.49615   0.16331  -0.1834630000
C          C       0.54210   0.25350   0.08701  -0.1853640000
C          C       0.54210   0.24651   0.16300  -0.1853410000
H          H       0.63961   0.02500   0.42424   0.1158330000
H          H       0.63961   0.47501   0.32577   0.1156160000
H          H       0.47288   0.27541   0.42376   0.1163100000
H          H       0.47288   0.22460   0.32625   0.1161150000
H          H       0.36039   0.47501   0.07576   0.1156810000
H          H       0.36039   0.02500   0.17424   0.1157460000
H          H       0.52712   0.22460   0.07624   0.1161670000
H          H       0.52712   0.27541   0.17375   0.1162240000
C          C       0.37816   0.48535   0.41948  -0.1783160000
C          C       0.37816   0.01465   0.33053  -0.1783830000
C          C       0.54459   0.23520   0.41946  -0.1782440000
C          C       0.54459   0.26481   0.33055  -0.1783190000
C          C       0.62184   0.01465   0.08053  -0.1782640000
C          C       0.62184   0.48535   0.16947  -0.1782410000
C          C       0.45542   0.26481   0.08055  -0.1782200000
C          C       0.45541   0.23520   0.16945  -0.1782810000
H          H       0.36405   0.00462   0.43760   0.1266120000
H          H       0.36405   0.49539   0.31240   0.1263420000
H          H       0.53046   0.25451   0.43756   0.1268010000
H          H       0.53046   0.24549   0.31245   0.1266530000
H          H       0.63595   0.49539   0.06240   0.1263780000
H          H       0.63595   0.00462   0.18760   0.1264280000
H          H       0.46954   0.24549   0.06244   0.1267020000
H          H       0.46954   0.25451   0.18755   0.1267770000
C          C       0.37645   0.43681   0.37525  -0.1737440000
C          C       0.37645   0.06320   0.37476  -0.1735560000
C          C       0.54286   0.18667   0.37522  -0.1739060000
C          C       0.54286   0.31334   0.37479  -0.1735190000
C          C       0.62355   0.06320   0.12475  -0.1735410000
C          C       0.62355   0.43681   0.12524  -0.1735930000
C          C       0.45714   0.31334   0.12478  -0.1736840000
C          C       0.45714   0.18666   0.12522  -0.1737850000
H          H       0.36105   0.41717   0.35777   0.1402180000
H          H       0.36105   0.08284   0.39224   0.1402870000
H          H       0.52745   0.16708   0.35773   0.1399170000
H          H       0.52745   0.33293   0.39228   0.1400130000
H          H       0.63896   0.08284   0.14224   0.1402260000
H          H       0.63896   0.41717   0.10776   0.1402020000
H          H       0.47255   0.33292   0.14228   0.1399990000
H          H       0.47255   0.16708   0.10772   0.1399900000
C          C       0.41721   0.43727   0.37551   0.0950360000
C          C       0.41721   0.06274   0.37450   0.0951650000
C          C       0.58362   0.18694   0.37555   0.0969180000
C          C       0.58362   0.31306   0.37446   0.0969830000
C          C       0.58279   0.06274   0.12449   0.0949930000
C          C       0.58279   0.43726   0.12551   0.0949680000
C          C       0.41638   0.31306   0.12447   0.0969970000
C          C       0.41638   0.18695   0.12554   0.0970210000
H          H       0.43409   0.41869   0.35850   0.0998660000
H          H       0.43409   0.08132   0.39152   0.0999770000
H          H       0.60049   0.16834   0.35853   0.0993560000
H          H       0.60049   0.33166   0.39148   0.0994560000
H          H       0.56591   0.08131   0.14151   0.0999620000
H          H       0.56591   0.41869   0.10849   0.0999410000
H          H       0.39951   0.33166   0.14147   0.0994410000
H          H       0.39951   0.16834   0.10854   0.0993670000
Zn         Zn      0.83438   0.45708   0.39887   0.8153940000
Zn         Zn      0.83438   0.04293   0.35114   0.8152910000
Zn         Zn      0.66758   0.20718   0.39888   0.8142320000
Zn         Zn      0.66758   0.29283   0.35113   0.8142810000
Zn         Zn      0.83229   0.04293   0.10114   0.8153250000
Zn         Zn      0.83229   0.45707   0.14886   0.8153790000
Zn         Zn      0.66576   0.29283   0.10113   0.8142490000
Zn         Zn      0.66576   0.20718   0.14888   0.8142500000
C          C       0.84381   0.42867   0.28952  -0.1423600000
C          C       0.84382   0.07133   0.46048  -0.1423620000
C          C       0.67663   0.17884   0.28952  -0.1417550000
C          C       0.67663   0.32117   0.46049  -0.1415620000
C          C       0.82285   0.07134   0.21048  -0.1424500000
C          C       0.82285   0.42867   0.03952  -0.1423610000
C          C       0.99004   0.32117   0.21049  -0.1417150000
C          C       0.99004   0.17884   0.03951  -0.1417710000
H          H       0.83341   0.46171   0.29276   0.1275950000
H          H       0.83341   0.03830   0.45725   0.1273670000
H          H       0.66611   0.21183   0.29271   0.1271060000
H          H       0.66611   0.28818   0.45730   0.1267680000
H          H       0.83326   0.03830   0.20724   0.1274660000
H          H       0.83326   0.46171   0.04276   0.1275790000
H          H       0.66723   0.28818   0.20730   0.1269110000
H          H       0.66723   0.21183   0.04270   0.1270240000
C          C       0.84441   0.42303   0.23942  -0.1369080000
C          C       0.84441   0.07697   0.01059  -0.1371720000
C          C       0.67748   0.17313   0.23940  -0.1374400000
C          C       0.67748   0.32688   0.01060  -0.1376290000
C          C       0.82226   0.07697   0.26059  -0.1371260000
C          C       0.82226   0.42304   0.48942  -0.1369520000
C          C       0.98919   0.32688   0.26060  -0.1375820000
C          C       0.98919   0.17313   0.48941  -0.1374600000
H          H       0.83321   0.45569   0.24238   0.1224670000
H          H       0.83321   0.04431   0.00762   0.1224160000
H          H       0.66626   0.20577   0.24230   0.1221690000
H          H       0.66626   0.29424   0.00769   0.1221310000
H          H       0.83346   0.04431   0.25763   0.1223180000
H          H       0.83346   0.45570   0.49238   0.1226090000
H          H       0.66708   0.29424   0.25770   0.1220190000
H          H       0.66708   0.20577   0.49231   0.1222290000
C          C       0.83941   0.43583   0.34000   0.5686380000
C          C       0.83941   0.06417   0.41001   0.5690990000
C          C       0.67199   0.18594   0.33999   0.5687200000
C          C       0.67200   0.31406   0.41002   0.5689590000
C          C       0.82726   0.06417   0.16001   0.5691160000
C          C       0.82726   0.43583   0.08999   0.5688950000
C          C       0.99467   0.31406   0.16001   0.5689690000
C          C       0.99467   0.18594   0.08999   0.5686750000
C          C       0.84923   0.41022   0.31191  -0.0543350000
C          C       0.84923   0.08979   0.43810  -0.0545420000
C          C       0.68203   0.16044   0.31193  -0.0532220000
C          C       0.68203   0.33957   0.43808  -0.0534070000
C          C       0.81744   0.08979   0.18810  -0.0544970000
C          C       0.81744   0.41022   0.06191  -0.0544280000
C          C       0.98464   0.33957   0.18809  -0.0533200000
C          C       0.98464   0.16044   0.06192  -0.0532320000
C          C       0.85154   0.40509   0.26254   0.0665730000
C          C       0.85154   0.09491   0.48747   0.0665280000
C          C       0.68453   0.15525   0.26255   0.0664940000
C          C       0.68453   0.34476   0.48746   0.0663780000
C          C       0.81513   0.09491   0.23747   0.0667010000
C          C       0.81513   0.40509   0.01253   0.0664400000
C          C       0.98213   0.34476   0.23745   0.0665160000
C          C       0.98213   0.15525   0.01255   0.0663770000
C          C       0.85063   0.39919   0.21309  -0.0320490000
C          C       0.85063   0.10082   0.03692  -0.0319010000
C          C       0.68381   0.14924   0.21310  -0.0300160000
C          C       0.68381   0.35076   0.03691  -0.0299920000
C          C       0.81603   0.10082   0.28692  -0.0319730000
C          C       0.81603   0.39919   0.46309  -0.0321430000
C          C       0.98285   0.35076   0.28691  -0.0302190000
C          C       0.98285   0.14924   0.46310  -0.0299590000
C          C       0.86636   0.36198   0.25850   0.0808540000
C          C       0.86636   0.13803   0.49151   0.0808910000
C          C       0.69944   0.11217   0.25858   0.0812490000
C          C       0.69944   0.38783   0.49143   0.0813810000
C          C       0.80031   0.13803   0.24150   0.0807050000
C          C       0.80031   0.36198   0.00850   0.0809440000
C          C       0.96723   0.38783   0.24143   0.0812130000
C          C       0.96723   0.11217   0.00857   0.0814240000
C          C       0.87269   0.34432   0.28190  -0.1411150000
C          C       0.87269   0.15568   0.46811  -0.1408720000
C          C       0.70576   0.09459   0.28199  -0.1406740000
C          C       0.70576   0.40542   0.46802  -0.1403410000
C          C       0.79398   0.15568   0.21811  -0.1409140000
C          C       0.79398   0.34433   0.03189  -0.1410570000
C          C       0.96091   0.40541   0.21801  -0.1405370000
C          C       0.96091   0.09459   0.03200  -0.1407000000
H          H       0.88463   0.31199   0.27901   0.1074870000
H          H       0.88463   0.18801   0.47101   0.1076730000
H          H       0.71777   0.06229   0.27914   0.1072280000
H          H       0.71777   0.43771   0.47086   0.1074150000
H          H       0.78204   0.18801   0.22101   0.1075680000
H          H       0.78204   0.31199   0.02900   0.1075370000
H          H       0.94890   0.43771   0.22086   0.1074120000
H          H       0.94890   0.06229   0.02914   0.1073830000
C          C       0.86390   0.36759   0.30790  -0.0986090000
C          C       0.86390   0.13242   0.44211  -0.0985570000
C          C       0.69687   0.11789   0.30797  -0.0997200000
C          C       0.69687   0.38212   0.44204  -0.0999150000
C          C       0.80276   0.13241   0.19210  -0.0984810000
C          C       0.80276   0.36759   0.05790  -0.0985740000
C          C       0.96980   0.38211   0.19203  -0.0998760000
C          C       0.96980   0.11789   0.05797  -0.0998000000
H          H       0.86821   0.35390   0.32576   0.1000360000
H          H       0.86821   0.14611   0.42425   0.1001530000
H          H       0.70117   0.10426   0.32586   0.1001990000
H          H       0.70117   0.39574   0.42415   0.1003530000
H          H       0.79845   0.14611   0.17424   0.1000870000
H          H       0.79845   0.35390   0.07576   0.1000700000
H          H       0.96549   0.39574   0.17415   0.1003030000
H          H       0.96549   0.10426   0.07586   0.1002610000
C          C       0.86600   0.35687   0.20922  -0.1052310000
C          C       0.86600   0.14313   0.04079  -0.1052620000
C          C       0.69920   0.10694   0.20927  -0.1057620000
C          C       0.69920   0.39307   0.04073  -0.1058300000
C          C       0.80067   0.14314   0.29080  -0.1051780000
C          C       0.80067   0.35687   0.45921  -0.1053220000
C          C       0.96747   0.39307   0.29074  -0.1056390000
C          C       0.96747   0.10693   0.45927  -0.1058510000
H          H       0.87179   0.33980   0.18823   0.1011850000
H          H       0.87179   0.16020   0.06177   0.1012310000
H          H       0.70503   0.08981   0.18831   0.1013560000
H          H       0.70503   0.41019   0.06169   0.1014110000
H          H       0.79487   0.16020   0.31178   0.1012920000
H          H       0.79487   0.33980   0.43823   0.1011870000
H          H       0.96163   0.41020   0.31169   0.1014150000
H          H       0.96163   0.08981   0.43831   0.1013170000
C          C       0.87403   0.33882   0.23126  -0.1459360000
C          C       0.87403   0.16118   0.01875  -0.1457060000
C          C       0.70718   0.08897   0.23136  -0.1459620000
C          C       0.70718   0.41104   0.01864  -0.1458020000
C          C       0.79264   0.16118   0.26875  -0.1457480000
C          C       0.79264   0.33882   0.48126  -0.1458190000
C          C       0.95948   0.41104   0.26865  -0.1458000000
C          C       0.95948   0.08897   0.48136  -0.1458570000
H          H       0.88643   0.30665   0.22812   0.1093330000
H          H       0.88643   0.19335   0.02188   0.1093910000
H          H       0.71963   0.05682   0.22828   0.1092970000
H          H       0.71963   0.44318   0.02173   0.1093620000
H          H       0.78024   0.19335   0.27188   0.1094510000
H          H       0.78024   0.30666   0.47813   0.1092590000
H          H       0.94704   0.44319   0.27173   0.1094460000
H          H       0.94704   0.05682   0.47828   0.1091700000
O          O       0.83121   0.47524   0.34273  -0.5815670000
O          O       0.83121   0.02477   0.40728  -0.5821350000
O          O       0.99611   0.22511   0.34272  -0.5824170000
O          O       0.99611   0.27490   0.40729  -0.5828480000
O          O       0.83545   0.02477   0.15728  -0.5820730000
O          O       0.83545   0.47524   0.09273  -0.5818690000
O          O       0.67056   0.27490   0.15729  -0.5827510000
O          O       0.67056   0.22511   0.09272  -0.5825140000
O          O       0.83730   0.45811   0.19187  -0.5660910000
O          O       0.83730   0.04188   0.05813  -0.5662250000
O          O       0.67061   0.20814   0.19185  -0.5653290000
O          O       0.67061   0.29187   0.05815  -0.5655100000
O          O       0.82937   0.04189   0.30813  -0.5663520000
O          O       0.82937   0.45812   0.44188  -0.5659620000
O          O       0.99606   0.29187   0.30816  -0.5656980000
O          O       0.99606   0.20814   0.44185  -0.5651580000
O          O       0.83926   0.41636   0.35988  -0.5476350000
O          O       0.83926   0.08365   0.39014  -0.5474710000
O          O       0.67259   0.16650   0.35989  -0.5477180000
O          O       0.67259   0.33350   0.39012  -0.5474570000
O          O       0.82741   0.08364   0.14013  -0.5475730000
O          O       0.82741   0.41636   0.10988  -0.5475760000
O          O       0.99408   0.33351   0.14012  -0.5475280000
O          O       0.99408   0.16650   0.10988  -0.5475150000
O          O       0.83744   0.39178   0.16531  -0.5673820000
O          O       0.83744   0.10823   0.08470  -0.5672950000
O          O       0.67073   0.14177   0.16530  -0.5666660000
O          O       0.67073   0.35823   0.08470  -0.5666330000
O          O       0.82923   0.10823   0.33470  -0.5671160000
O          O       0.82923   0.39177   0.41531  -0.5675230000
O          O       0.99594   0.35824   0.33470  -0.5665970000
O          O       0.99594   0.14177   0.41530  -0.5668570000
N          N       0.89704   0.46052   0.39944  -0.2148340000
N          N       0.89704   0.03948   0.35056  -0.2147450000
N          N       0.73015   0.21091   0.39933  -0.2186080000
N          N       0.73015   0.28909   0.35068  -0.2189080000
N          N       0.76963   0.03948   0.10056  -0.2147140000
N          N       0.76963   0.46052   0.14944  -0.2146760000
N          N       0.93651   0.28909   0.10068  -0.2187570000
N          N       0.93651   0.21091   0.14933  -0.2186960000
N          N       0.77161   0.45988   0.39661  -0.2111570000
N          N       0.77161   0.04012   0.35340  -0.2112120000
N          N       0.93803   0.20944   0.39668  -0.2110920000
N          N       0.93803   0.29057   0.35333  -0.2110820000
N          N       0.89505   0.04013   0.10340  -0.2111170000
N          N       0.89505   0.45988   0.14661  -0.2111170000
N          N       0.72864   0.29057   0.10333  -0.2111160000
N          N       0.72864   0.20944   0.14667  -0.2111490000
C          C       0.97939   0.46088   0.39863   0.0989600000
C          C       0.97939   0.03913   0.35139   0.0989950000
C          C       0.81249   0.21100   0.39853   0.1016920000
C          C       0.81249   0.28901   0.35149   0.1017600000
C          C       0.68728   0.03913   0.10138   0.0988510000
C          C       0.68728   0.46087   0.14863   0.0989460000
C          C       0.85418   0.28900   0.10148   0.1017200000
C          C       0.85418   0.21100   0.14852   0.1017090000
C          C       0.68931   0.46122   0.39776   0.1038340000
C          C       0.68931   0.03879   0.35224   0.1038390000
C          C       0.85574   0.21116   0.39770   0.1023370000
C          C       0.85574   0.28884   0.35230   0.1021850000
C          C       0.97735   0.03879   0.10225   0.1038810000
C          C       0.97735   0.46121   0.14776   0.1038270000
C          C       0.81092   0.28884   0.10230   0.1022210000
C          C       0.81092   0.21116   0.14771   0.1022600000
C          C       0.84112   0.41726   0.18867   0.5500680000
C          C       0.84112   0.08275   0.06134   0.5500520000
C          C       0.67439   0.16727   0.18865   0.5484730000
C          C       0.67438   0.33273   0.06135   0.5486250000
C          C       0.82555   0.08274   0.31134   0.5500170000
C          C       0.82555   0.41726   0.43867   0.5501520000
C          C       0.99228   0.33273   0.31135   0.5488270000
C          C       0.99228   0.16727   0.43866   0.5485130000
C          C       0.75216   0.48369   0.41819   0.0952770000
C          C       0.75216   0.01631   0.33182   0.0953520000
C          C       0.91858   0.23333   0.41824   0.0961430000
C          C       0.91858   0.26667   0.33177   0.0961280000
C          C       0.91451   0.01631   0.08182   0.0952570000
C          C       0.91451   0.48369   0.16819   0.0952770000
C          C       0.74809   0.26667   0.08178   0.0959820000
C          C       0.74809   0.23333   0.16823   0.0960530000
H          H       0.77038   0.00127   0.43478   0.1067390000
H          H       0.77038   0.49874   0.31523   0.1065650000
H          H       0.93680   0.25082   0.43484   0.1065210000
H          H       0.93680   0.24919   0.31516   0.1062800000
H          H       0.89629   0.49874   0.06523   0.1066720000
H          H       0.89629   0.00127   0.18477   0.1066990000
H          H       0.72987   0.24919   0.06516   0.1064560000
H          H       0.72987   0.25082   0.18485   0.1065030000
C          C       0.91734   0.49471   0.41336   0.0951930000
C          C       0.91734   0.00530   0.33665   0.0949470000
C          C       0.75052   0.24521   0.41304   0.0976070000
C          C       0.75052   0.25479   0.33697   0.0976150000
C          C       0.74933   0.00529   0.08665   0.0949980000
C          C       0.74933   0.49471   0.16336   0.0949200000
C          C       0.91615   0.25479   0.08697   0.0975430000
C          C       0.91615   0.24521   0.16304   0.0975070000
H          H       0.90004   0.02152   0.42459   0.0933040000
H          H       0.90004   0.47849   0.32542   0.0930990000
H          H       0.73328   0.27220   0.42412   0.0926780000
H          H       0.73328   0.22781   0.32588   0.0925110000
H          H       0.76663   0.47849   0.07541   0.0931570000
H          H       0.76663   0.02151   0.17458   0.0932770000
H          H       0.93338   0.22781   0.07588   0.0925550000
H          H       0.93338   0.27220   0.17412   0.0926480000
C          C       0.95809   0.42504   0.38467  -0.1694680000
C          C       0.95809   0.07496   0.36534  -0.1694810000
C          C       0.79113   0.17510   0.38476  -0.1699370000
C          C       0.79113   0.32491   0.36525  -0.1698880000
C          C       0.70857   0.07496   0.11533  -0.1693840000
C          C       0.70857   0.42504   0.13467  -0.1695140000
C          C       0.87554   0.32490   0.11525  -0.1699290000
C          C       0.87554   0.17510   0.13476  -0.1699370000
H          H       0.97271   0.39640   0.37312   0.1444010000
H          H       0.97271   0.10360   0.37689   0.1445880000
H          H       0.80572   0.14631   0.37337   0.1446790000
H          H       0.80572   0.35369   0.37663   0.1448310000
H          H       0.69395   0.10360   0.12688   0.1444830000
H          H       0.69395   0.39640   0.12312   0.1444370000
H          H       0.86095   0.35369   0.12663   0.1447680000
H          H       0.86095   0.14631   0.12337   0.1447310000
C          C       0.91742   0.42634   0.38555   0.0905450000
C          C       0.91742   0.07366   0.36446   0.0907900000
C          C       0.75046   0.17652   0.38562   0.0916980000
C          C       0.75046   0.32349   0.36439   0.0919900000
C          C       0.74925   0.07366   0.11446   0.0906570000
C          C       0.74925   0.42634   0.13554   0.0907040000
C          C       0.91621   0.32349   0.11438   0.0918930000
C          C       0.91621   0.17652   0.13562   0.0918600000
H          H       0.89985   0.39960   0.37459   0.0944990000
H          H       0.89985   0.10040   0.37543   0.0946580000
H          H       0.73283   0.14971   0.37483   0.0946920000
H          H       0.73283   0.35029   0.37518   0.0949020000
H          H       0.76681   0.10040   0.12542   0.0946260000
H          H       0.76681   0.39959   0.12459   0.0945610000
H          H       0.93384   0.35029   0.12518   0.0948080000
H          H       0.93384   0.14971   0.12482   0.0947330000
C          C       0.95805   0.49615   0.41331  -0.1834990000
C          C       0.95805   0.00385   0.33670  -0.1835480000
C          C       0.79123   0.24651   0.41300  -0.1853590000
C          C       0.79123   0.25350   0.33701  -0.1855240000
C          C       0.70862   0.00385   0.08669  -0.1834620000
C          C       0.70862   0.49615   0.16331  -0.1834630000
C          C       0.87543   0.25350   0.08701  -0.1853640000
C          C       0.87543   0.24651   0.16300  -0.1853410000
H          H       0.97295   0.02500   0.42424   0.1158330000
H          H       0.97295   0.47501   0.32577   0.1156160000
H          H       0.80622   0.27541   0.42376   0.1163100000
H          H       0.80622   0.22460   0.32625   0.1161150000
H          H       0.69372   0.47501   0.07576   0.1156810000
H          H       0.69372   0.02500   0.17424   0.1157460000
H          H       0.86045   0.22460   0.07624   0.1161670000
H          H       0.86045   0.27541   0.17375   0.1162240000
C          C       0.71150   0.48535   0.41948  -0.1783160000
C          C       0.71150   0.01465   0.33053  -0.1783830000
C          C       0.87792   0.23520   0.41946  -0.1782440000
C          C       0.87792   0.26481   0.33055  -0.1783190000
C          C       0.95517   0.01465   0.08053  -0.1782640000
C          C       0.95517   0.48535   0.16947  -0.1782410000
C          C       0.78875   0.26481   0.08055  -0.1782200000
C          C       0.78875   0.23520   0.16945  -0.1782810000
H          H       0.69738   0.00462   0.43760   0.1266120000
H          H       0.69738   0.49539   0.31240   0.1263420000
H          H       0.86379   0.25451   0.43756   0.1268010000
H          H       0.86379   0.24549   0.31245   0.1266530000
H          H       0.96929   0.49539   0.06240   0.1263780000
H          H       0.96929   0.00462   0.18760   0.1264280000
H          H       0.80288   0.24549   0.06244   0.1267020000
H          H       0.80288   0.25451   0.18755   0.1267770000
C          C       0.70978   0.43681   0.37525  -0.1737440000
C          C       0.70978   0.06320   0.37476  -0.1735560000
C          C       0.87620   0.18667   0.37522  -0.1739060000
C          C       0.87620   0.31334   0.37479  -0.1735190000
C          C       0.95688   0.06320   0.12475  -0.1735410000
C          C       0.95688   0.43681   0.12524  -0.1735930000
C          C       0.79047   0.31334   0.12478  -0.1736840000
C          C       0.79047   0.18666   0.12522  -0.1737850000
H          H       0.69438   0.41717   0.35777   0.1402180000
H          H       0.69438   0.08284   0.39224   0.1402870000
H          H       0.86078   0.16708   0.35773   0.1399170000
H          H       0.86078   0.33293   0.39228   0.1400130000
H          H       0.97229   0.08284   0.14224   0.1402260000
H          H       0.97229   0.41717   0.10776   0.1402020000
H          H       0.80589   0.33292   0.14228   0.1399990000
H          H       0.80589   0.16708   0.10772   0.1399900000
C          C       0.75054   0.43727   0.37551   0.0950360000
C          C       0.75054   0.06274   0.37450   0.0951650000
C          C       0.91696   0.18694   0.37555   0.0969180000
C          C       0.91696   0.31306   0.37446   0.0969830000
C          C       0.91612   0.06274   0.12449   0.0949930000
C          C       0.91612   0.43726   0.12551   0.0949680000
C          C       0.74971   0.31306   0.12447   0.0969970000
C          C       0.74971   0.18695   0.12554   0.0970210000
H          H       0.76742   0.41869   0.35850   0.0998660000
H          H       0.76742   0.08132   0.39152   0.0999770000
H          H       0.93383   0.16834   0.35853   0.0993560000
H          H       0.93383   0.33166   0.39148   0.0994560000
H          H       0.89924   0.08131   0.14151   0.0999620000
H          H       0.89924   0.41869   0.10849   0.0999410000
H          H       0.73284   0.33166   0.14147   0.0994410000
H          H       0.73284   0.16834   0.10854   0.0993670000
Zn         Zn      0.16771   0.95708   0.39887   0.8153940000
Zn         Zn      0.16771   0.54293   0.35114   0.8152910000
Zn         Zn      0.00091   0.70718   0.39888   0.8142320000
Zn         Zn      0.00091   0.79283   0.35113   0.8142810000
Zn         Zn      0.16562   0.54293   0.10114   0.8153250000
Zn         Zn      0.16562   0.95707   0.14886   0.8153790000
Zn         Zn     -0.00091   0.79283   0.10113   0.8142490000
Zn         Zn     -0.00091   0.70718   0.14888   0.8142500000
C          C       0.17715   0.92867   0.28952  -0.1423600000
C          C       0.17715   0.57134   0.46048  -0.1423620000
C          C       0.00996   0.67884   0.28952  -0.1417550000
C          C       0.00996   0.82117   0.46049  -0.1415620000
C          C       0.15619   0.57134   0.21048  -0.1424500000
C          C       0.15619   0.92867   0.03952  -0.1423610000
C          C       0.32337   0.82117   0.21049  -0.1417150000
C          C       0.32337   0.67884   0.03951  -0.1417710000
H          H       0.16674   0.96171   0.29276   0.1275950000
H          H       0.16674   0.53830   0.45725   0.1273670000
H          H      -0.00056   0.71183   0.29271   0.1271060000
H          H      -0.00056   0.78818   0.45730   0.1267680000
H          H       0.16659   0.53830   0.20724   0.1274660000
H          H       0.16659   0.96171   0.04276   0.1275790000
H          H       0.00056   0.78818   0.20730   0.1269110000
H          H       0.00056   0.71183   0.04270   0.1270240000
C          C       0.17774   0.92303   0.23942  -0.1369080000
C          C       0.17774   0.57697   0.01059  -0.1371720000
C          C       0.01081   0.67313   0.23940  -0.1374400000
C          C       0.01081   0.82688   0.01060  -0.1376290000
C          C       0.15559   0.57697   0.26059  -0.1371260000
C          C       0.15559   0.92304   0.48942  -0.1369520000
C          C       0.32252   0.82688   0.26060  -0.1375820000
C          C       0.32252   0.67313   0.48941  -0.1374600000
H          H       0.16654   0.95569   0.24238   0.1224670000
H          H       0.16654   0.54431   0.00762   0.1224160000
H          H      -0.00041   0.70577   0.24230   0.1221690000
H          H      -0.00041   0.79424   0.00769   0.1221310000
H          H       0.16679   0.54431   0.25763   0.1223180000
H          H       0.16679   0.95570   0.49238   0.1226090000
H          H       0.00041   0.79424   0.25770   0.1220190000
H          H       0.00041   0.70577   0.49231   0.1222290000
C          C       0.17274   0.93583   0.34000   0.5686380000
C          C       0.17274   0.56418   0.41001   0.5690990000
C          C       0.00533   0.68594   0.33999   0.5687200000
C          C       0.00533   0.81407   0.41002   0.5689590000
C          C       0.16059   0.56418   0.16001   0.5691160000
C          C       0.16059   0.93583   0.08999   0.5688950000
C          C       0.32800   0.81406   0.16001   0.5689690000
C          C       0.32800   0.68594   0.08999   0.5686750000
C          C       0.18256   0.91022   0.31191  -0.0543350000
C          C       0.18256   0.58979   0.43810  -0.0545420000
C          C       0.01536   0.66044   0.31193  -0.0532220000
C          C       0.01536   0.83957   0.43808  -0.0534070000
C          C       0.15077   0.58979   0.18810  -0.0544970000
C          C       0.15077   0.91022   0.06191  -0.0544280000
C          C       0.31797   0.83957   0.18809  -0.0533200000
C          C       0.31797   0.66044   0.06192  -0.0532320000
C          C       0.18487   0.90509   0.26254   0.0665730000
C          C       0.18487   0.59491   0.48747   0.0665280000
C          C       0.01787   0.65525   0.26255   0.0664940000
C          C       0.01787   0.84476   0.48746   0.0663780000
C          C       0.14846   0.59491   0.23747   0.0667010000
C          C       0.14846   0.90509   0.01253   0.0664400000
C          C       0.31547   0.84475   0.23745   0.0665160000
C          C       0.31547   0.65525   0.01255   0.0663770000
C          C       0.18397   0.89919   0.21309  -0.0320490000
C          C       0.18397   0.60081   0.03692  -0.0319010000
C          C       0.01715   0.64924   0.21310  -0.0300160000
C          C       0.01715   0.85077   0.03691  -0.0299920000
C          C       0.14937   0.60081   0.28692  -0.0319730000
C          C       0.14937   0.89919   0.46309  -0.0321430000
C          C       0.31619   0.85076   0.28691  -0.0302190000
C          C       0.31619   0.64924   0.46310  -0.0299590000
C          C       0.19969   0.86197   0.25850   0.0808540000
C          C       0.19969   0.63803   0.49151   0.0808910000
C          C       0.03277   0.61217   0.25858   0.0812490000
C          C       0.03277   0.88784   0.49143   0.0813810000
C          C       0.13364   0.63803   0.24150   0.0807050000
C          C       0.13364   0.86198   0.00850   0.0809440000
C          C       0.30056   0.88783   0.24143   0.0812130000
C          C       0.30056   0.61217   0.00857   0.0814240000
C          C       0.20602   0.84432   0.28190  -0.1411150000
C          C       0.20602   0.65568   0.46811  -0.1408720000
C          C       0.03909   0.59459   0.28199  -0.1406740000
C          C       0.03909   0.90542   0.46802  -0.1403410000
C          C       0.12731   0.65568   0.21811  -0.1409140000
C          C       0.12731   0.84433   0.03189  -0.1410570000
C          C       0.29424   0.90541   0.21801  -0.1405370000
C          C       0.29424   0.59459   0.03200  -0.1407000000
H          H       0.21796   0.81199   0.27901   0.1074870000
H          H       0.21796   0.68802   0.47101   0.1076730000
H          H       0.05110   0.56229   0.27914   0.1072280000
H          H       0.05110   0.93771   0.47086   0.1074150000
H          H       0.11537   0.68801   0.22101   0.1075680000
H          H       0.11537   0.81199   0.02900   0.1075370000
H          H       0.28223   0.93771   0.22086   0.1074120000
H          H       0.28223   0.56229   0.02914   0.1073830000
C          C       0.19724   0.86759   0.30790  -0.0986090000
C          C       0.19724   0.63242   0.44211  -0.0985570000
C          C       0.03020   0.61789   0.30797  -0.0997200000
C          C       0.03020   0.88212   0.44204  -0.0999150000
C          C       0.13610   0.63241   0.19210  -0.0984810000
C          C       0.13610   0.86759   0.05790  -0.0985740000
C          C       0.30313   0.88212   0.19203  -0.0998760000
C          C       0.30313   0.61789   0.05797  -0.0998000000
H          H       0.20155   0.85390   0.32576   0.1000360000
H          H       0.20155   0.64611   0.42425   0.1001530000
H          H       0.03451   0.60427   0.32586   0.1001990000
H          H       0.03451   0.89574   0.42415   0.1003530000
H          H       0.13179   0.64611   0.17424   0.1000870000
H          H       0.13179   0.85390   0.07576   0.1000700000
H          H       0.29883   0.89574   0.17415   0.1003030000
H          H       0.29883   0.60427   0.07586   0.1002610000
C          C       0.19933   0.85687   0.20922  -0.1052310000
C          C       0.19933   0.64313   0.04079  -0.1052620000
C          C       0.03253   0.60694   0.20927  -0.1057620000
C          C       0.03253   0.89307   0.04073  -0.1058300000
C          C       0.13400   0.64314   0.29080  -0.1051780000
C          C       0.13400   0.85687   0.45921  -0.1053220000
C          C       0.30080   0.89307   0.29074  -0.1056390000
C          C       0.30080   0.60694   0.45927  -0.1058510000
H          H       0.20513   0.83980   0.18823   0.1011850000
H          H       0.20513   0.66021   0.06177   0.1012310000
H          H       0.03837   0.58981   0.18831   0.1013560000
H          H       0.03837   0.91019   0.06169   0.1014110000
H          H       0.12821   0.66021   0.31178   0.1012920000
H          H       0.12821   0.83980   0.43823   0.1011870000
H          H       0.29497   0.91020   0.31169   0.1014150000
H          H       0.29497   0.58981   0.43831   0.1013170000
C          C       0.20736   0.83882   0.23126  -0.1459360000
C          C       0.20736   0.66118   0.01875  -0.1457060000
C          C       0.04052   0.58897   0.23136  -0.1459620000
C          C       0.04052   0.91104   0.01864  -0.1458020000
C          C       0.12597   0.66118   0.26875  -0.1457480000
C          C       0.12597   0.83882   0.48126  -0.1458190000
C          C       0.29282   0.91104   0.26865  -0.1458000000
C          C       0.29282   0.58897   0.48136  -0.1458570000
H          H       0.21976   0.80665   0.22812   0.1093330000
H          H       0.21976   0.69335   0.02188   0.1093910000
H          H       0.05296   0.55682   0.22828   0.1092970000
H          H       0.05296   0.94318   0.02173   0.1093620000
H          H       0.11357   0.69335   0.27188   0.1094510000
H          H       0.11357   0.80666   0.47813   0.1092590000
H          H       0.28037   0.94319   0.27173   0.1094460000
H          H       0.28037   0.55682   0.47828   0.1091700000
O          O       0.16455   0.97524   0.34273  -0.5815670000
O          O       0.16455   0.52477   0.40728  -0.5821350000
O          O       0.32945   0.72511   0.34272  -0.5824170000
O          O       0.32945   0.77490   0.40729  -0.5828480000
O          O       0.16879   0.52477   0.15728  -0.5820730000
O          O       0.16879   0.97524   0.09273  -0.5818690000
O          O       0.00389   0.77490   0.15729  -0.5827510000
O          O       0.00389   0.72510   0.09272  -0.5825140000
O          O       0.17063   0.95812   0.19187  -0.5660910000
O          O       0.17063   0.54189   0.05813  -0.5662250000
O          O       0.00394   0.70814   0.19185  -0.5653290000
O          O       0.00394   0.79186   0.05815  -0.5655100000
O          O       0.16270   0.54189   0.30813  -0.5663520000
O          O       0.16270   0.95812   0.44188  -0.5659620000
O          O       0.32939   0.79187   0.30816  -0.5656980000
O          O       0.32939   0.70814   0.44185  -0.5651580000
O          O       0.17259   0.91636   0.35988  -0.5476350000
O          O       0.17259   0.58365   0.39014  -0.5474710000
O          O       0.00592   0.66650   0.35989  -0.5477180000
O          O       0.00592   0.83351   0.39012  -0.5474570000
O          O       0.16074   0.58365   0.14013  -0.5475730000
O          O       0.16074   0.91636   0.10988  -0.5475760000
O          O       0.32741   0.83351   0.14012  -0.5475280000
O          O       0.32741   0.66650   0.10988  -0.5475150000
O          O       0.17077   0.89178   0.16531  -0.5673820000
O          O       0.17077   0.60823   0.08470  -0.5672950000
O          O       0.00406   0.64177   0.16530  -0.5666660000
O          O       0.00406   0.85823   0.08470  -0.5666330000
O          O       0.16256   0.60823   0.33470  -0.5671160000
O          O       0.16256   0.89178   0.41531  -0.5675230000
O          O       0.32927   0.85824   0.33470  -0.5665970000
O          O       0.32927   0.64177   0.41530  -0.5668570000
N          N       0.23037   0.96052   0.39944  -0.2148340000
N          N       0.23037   0.53948   0.35056  -0.2147450000
N          N       0.06349   0.71091   0.39933  -0.2186080000
N          N       0.06349   0.78909   0.35068  -0.2189080000
N          N       0.10296   0.53948   0.10056  -0.2147140000
N          N       0.10296   0.96052   0.14944  -0.2146760000
N          N       0.26985   0.78909   0.10068  -0.2187570000
N          N       0.26985   0.71091   0.14933  -0.2186960000
N          N       0.10495   0.95988   0.39661  -0.2111570000
N          N       0.10495   0.54013   0.35340  -0.2112120000
N          N       0.27136   0.70944   0.39668  -0.2110920000
N          N       0.27136   0.79057   0.35333  -0.2110820000
N          N       0.22839   0.54013   0.10340  -0.2111170000
N          N       0.22839   0.95988   0.14661  -0.2111170000
N          N       0.06197   0.79057   0.10333  -0.2111160000
N          N       0.06197   0.70944   0.14667  -0.2111490000
C          C       0.31272   0.96088   0.39863   0.0989600000
C          C       0.31272   0.53913   0.35139   0.0989950000
C          C       0.14582   0.71100   0.39853   0.1016920000
C          C       0.14582   0.78901   0.35149   0.1017600000
C          C       0.02061   0.53913   0.10138   0.0988510000
C          C       0.02061   0.96088   0.14863   0.0989460000
C          C       0.18751   0.78900   0.10148   0.1017200000
C          C       0.18751   0.71100   0.14852   0.1017090000
C          C       0.02265   0.96122   0.39776   0.1038340000
C          C       0.02265   0.53879   0.35224   0.1038390000
C          C       0.18908   0.71117   0.39770   0.1023370000
C          C       0.18908   0.78884   0.35230   0.1021850000
C          C       0.31069   0.53879   0.10225   0.1038810000
C          C       0.31069   0.96122   0.14776   0.1038270000
C          C       0.14426   0.78884   0.10230   0.1022210000
C          C       0.14426   0.71117   0.14771   0.1022600000
C          C       0.17445   0.91726   0.18867   0.5500680000
C          C       0.17445   0.58275   0.06134   0.5500520000
C          C       0.00772   0.66727   0.18865   0.5484730000
C          C       0.00772   0.83273   0.06135   0.5486250000
C          C       0.15888   0.58275   0.31134   0.5500170000
C          C       0.15888   0.91726   0.43867   0.5501520000
C          C       0.32562   0.83273   0.31135   0.5488270000
C          C       0.32562   0.66727   0.43866   0.5485130000
C          C       0.08549   0.98370   0.41819   0.0952770000
C          C       0.08549   0.51631   0.33182   0.0953520000
C          C       0.25191   0.73333   0.41824   0.0961430000
C          C       0.25191   0.76667   0.33177   0.0961280000
C          C       0.24784   0.51631   0.08182   0.0952570000
C          C       0.24784   0.98369   0.16819   0.0952770000
C          C       0.08142   0.76668   0.08178   0.0959820000
C          C       0.08142   0.73333   0.16823   0.0960530000
H          H       0.10371   0.50127   0.43478   0.1067390000
H          H       0.10371   0.99874   0.31523   0.1065650000
H          H       0.27013   0.75082   0.43484   0.1065210000
H          H       0.27013   0.74918   0.31516   0.1062800000
H          H       0.22962   0.99874   0.06523   0.1066720000
H          H       0.22962   0.50126   0.18477   0.1066990000
H          H       0.06320   0.74918   0.06516   0.1064560000
H          H       0.06320   0.75082   0.18485   0.1065030000
C          C       0.25067   0.99471   0.41336   0.0951930000
C          C       0.25067   0.50530   0.33665   0.0949470000
C          C       0.08385   0.74521   0.41304   0.0976070000
C          C       0.08385   0.75479   0.33697   0.0976150000
C          C       0.08266   0.50530   0.08665   0.0949980000
C          C       0.08266   0.99471   0.16336   0.0949200000
C          C       0.24948   0.75479   0.08697   0.0975430000
C          C       0.24948   0.74521   0.16304   0.0975070000
H          H       0.23337   0.52152   0.42459   0.0933040000
H          H       0.23337   0.97849   0.32542   0.0930990000
H          H       0.06662   0.77220   0.42412   0.0926780000
H          H       0.06662   0.72781   0.32588   0.0925110000
H          H       0.09996   0.97849   0.07541   0.0931570000
H          H       0.09996   0.52152   0.17458   0.0932770000
H          H       0.26672   0.72780   0.07588   0.0925550000
H          H       0.26672   0.77220   0.17412   0.0926480000
C          C       0.29143   0.92504   0.38467  -0.1694680000
C          C       0.29143   0.57496   0.36534  -0.1694810000
C          C       0.12446   0.67510   0.38476  -0.1699370000
C          C       0.12446   0.82491   0.36525  -0.1698880000
C          C       0.04191   0.57496   0.11533  -0.1693840000
C          C       0.04191   0.92504   0.13467  -0.1695140000
C          C       0.20887   0.82491   0.11525  -0.1699290000
C          C       0.20887   0.67510   0.13476  -0.1699370000
H          H       0.30605   0.89640   0.37312   0.1444010000
H          H       0.30605   0.60360   0.37689   0.1445880000
H          H       0.13905   0.64631   0.37337   0.1446790000
H          H       0.13905   0.85369   0.37663   0.1448310000
H          H       0.02729   0.60360   0.12688   0.1444830000
H          H       0.02729   0.89640   0.12312   0.1444370000
H          H       0.19428   0.85369   0.12663   0.1447680000
H          H       0.19428   0.64631   0.12337   0.1447310000
C          C       0.25075   0.92634   0.38555   0.0905450000
C          C       0.25075   0.57366   0.36446   0.0907900000
C          C       0.08379   0.67652   0.38562   0.0916980000
C          C       0.08379   0.82349   0.36439   0.0919900000
C          C       0.08258   0.57367   0.11446   0.0906570000
C          C       0.08258   0.92634   0.13554   0.0907040000
C          C       0.24954   0.82349   0.11438   0.0918930000
C          C       0.24954   0.67652   0.13562   0.0918600000
H          H       0.23319   0.89960   0.37459   0.0944990000
H          H       0.23319   0.60041   0.37543   0.0946580000
H          H       0.06616   0.64972   0.37483   0.0946920000
H          H       0.06616   0.85029   0.37518   0.0949020000
H          H       0.10015   0.60041   0.12542   0.0946260000
H          H       0.10015   0.89960   0.12459   0.0945610000
H          H       0.26717   0.85029   0.12518   0.0948080000
H          H       0.26717   0.64971   0.12482   0.0947330000
C          C       0.29138   0.99615   0.41331  -0.1834990000
C          C       0.29138   0.50386   0.33670  -0.1835480000
C          C       0.12457   0.74651   0.41300  -0.1853590000
C          C       0.12457   0.75350   0.33701  -0.1855240000
C          C       0.04195   0.50386   0.08669  -0.1834620000
C          C       0.04195   0.99615   0.16331  -0.1834630000
C          C       0.20877   0.75350   0.08701  -0.1853640000
C          C       0.20877   0.74651   0.16300  -0.1853410000
H          H       0.30628   0.52500   0.42424   0.1158330000
H          H       0.30628   0.97501   0.32577   0.1156160000
H          H       0.13955   0.77541   0.42376   0.1163100000
H          H       0.13955   0.72460   0.32625   0.1161150000
H          H       0.02705   0.97501   0.07576   0.1156810000
H          H       0.02705   0.52500   0.17424   0.1157460000
H          H       0.19378   0.72460   0.07624   0.1161670000
H          H       0.19378   0.77541   0.17375   0.1162240000
C          C       0.04483   0.98535   0.41948  -0.1783160000
C          C       0.04483   0.51465   0.33053  -0.1783830000
C          C       0.21125   0.73520   0.41946  -0.1782440000
C          C       0.21125   0.76481   0.33055  -0.1783190000
C          C       0.28850   0.51465   0.08053  -0.1782640000
C          C       0.28850   0.98535   0.16947  -0.1782410000
C          C       0.12208   0.76481   0.08055  -0.1782200000
C          C       0.12208   0.73520   0.16945  -0.1782810000
H          H       0.03071   0.50462   0.43760   0.1266120000
H          H       0.03071   0.99539   0.31240   0.1263420000
H          H       0.19712   0.75452   0.43756   0.1268010000
H          H       0.19712   0.74549   0.31245   0.1266530000
H          H       0.30262   0.99539   0.06240   0.1263780000
H          H       0.30262   0.50462   0.18760   0.1264280000
H          H       0.13621   0.74549   0.06244   0.1267020000
H          H       0.13621   0.75451   0.18755   0.1267770000
C          C       0.04312   0.93681   0.37525  -0.1737440000
C          C       0.04312   0.56320   0.37476  -0.1735560000
C          C       0.20953   0.68667   0.37522  -0.1739060000
C          C       0.20953   0.81334   0.37479  -0.1735190000
C          C       0.29022   0.56320   0.12475  -0.1735410000
C          C       0.29022   0.93681   0.12524  -0.1735930000
C          C       0.12380   0.81334   0.12478  -0.1736840000
C          C       0.12380   0.68666   0.12522  -0.1737850000
H          H       0.02771   0.91717   0.35777   0.1402180000
H          H       0.02771   0.58284   0.39224   0.1402870000
H          H       0.19411   0.66708   0.35773   0.1399170000
H          H       0.19411   0.83293   0.39228   0.1400130000
H          H       0.30562   0.58284   0.14224   0.1402260000
H          H       0.30562   0.91717   0.10776   0.1402020000
H          H       0.13922   0.83292   0.14228   0.1399990000
H          H       0.13922   0.66708   0.10772   0.1399900000
C          C       0.08388   0.93727   0.37551   0.0950360000
C          C       0.08388   0.56274   0.37450   0.0951650000
C          C       0.25029   0.68695   0.37555   0.0969180000
C          C       0.25029   0.81306   0.37446   0.0969830000
C          C       0.24946   0.56274   0.12449   0.0949930000
C          C       0.24946   0.93726   0.12551   0.0949680000
C          C       0.08304   0.81306   0.12447   0.0969970000
C          C       0.08304   0.68695   0.12554   0.0970210000
H          H       0.10076   0.91869   0.35850   0.0998660000
H          H       0.10076   0.58132   0.39152   0.0999770000
H          H       0.26716   0.66834   0.35853   0.0993560000
H          H       0.26716   0.83166   0.39148   0.0994560000
H          H       0.23258   0.58132   0.14151   0.0999620000
H          H       0.23258   0.91869   0.10849   0.0999410000
H          H       0.06617   0.83166   0.14147   0.0994410000
H          H       0.06617   0.66834   0.10854   0.0993670000
Zn         Zn      0.50105   0.95708   0.39887   0.8153940000
Zn         Zn      0.50105   0.54293   0.35114   0.8152910000
Zn         Zn      0.33424   0.70718   0.39888   0.8142320000
Zn         Zn      0.33424   0.79283   0.35113   0.8142810000
Zn         Zn      0.49895   0.54293   0.10114   0.8153250000
Zn         Zn      0.49895   0.95707   0.14886   0.8153790000
Zn         Zn      0.33242   0.79283   0.10113   0.8142490000
Zn         Zn      0.33242   0.70718   0.14888   0.8142500000
C          C       0.51048   0.92867   0.28952  -0.1423600000
C          C       0.51048   0.57134   0.46048  -0.1423620000
C          C       0.34330   0.67884   0.28952  -0.1417550000
C          C       0.34330   0.82117   0.46049  -0.1415620000
C          C       0.48952   0.57134   0.21048  -0.1424500000
C          C       0.48952   0.92867   0.03952  -0.1423610000
C          C       0.65670   0.82117   0.21049  -0.1417150000
C          C       0.65670   0.67884   0.03951  -0.1417710000
H          H       0.50007   0.96171   0.29276   0.1275950000
H          H       0.50007   0.53830   0.45725   0.1273670000
H          H       0.33277   0.71183   0.29271   0.1271060000
H          H       0.33277   0.78818   0.45730   0.1267680000
H          H       0.49993   0.53830   0.20724   0.1274660000
H          H       0.49993   0.96171   0.04276   0.1275790000
H          H       0.33389   0.78818   0.20730   0.1269110000
H          H       0.33389   0.71183   0.04270   0.1270240000
C          C       0.51107   0.92303   0.23942  -0.1369080000
C          C       0.51107   0.57697   0.01059  -0.1371720000
C          C       0.34415   0.67313   0.23940  -0.1374400000
C          C       0.34415   0.82688   0.01060  -0.1376290000
C          C       0.48893   0.57697   0.26059  -0.1371260000
C          C       0.48893   0.92304   0.48942  -0.1369520000
C          C       0.65585   0.82688   0.26060  -0.1375820000
C          C       0.65585   0.67313   0.48941  -0.1374600000
H          H       0.49988   0.95569   0.24238   0.1224670000
H          H       0.49988   0.54431   0.00762   0.1224160000
H          H       0.33292   0.70577   0.24230   0.1221690000
H          H       0.33292   0.79424   0.00769   0.1221310000
H          H       0.50012   0.54431   0.25763   0.1223180000
H          H       0.50012   0.95570   0.49238   0.1226090000
H          H       0.33374   0.79424   0.25770   0.1220190000
H          H       0.33374   0.70577   0.49231   0.1222290000
C          C       0.50607   0.93583   0.34000   0.5686380000
C          C       0.50608   0.56418   0.41001   0.5690990000
C          C       0.33866   0.68594   0.33999   0.5687200000
C          C       0.33866   0.81407   0.41002   0.5689590000
C          C       0.49393   0.56418   0.16001   0.5691160000
C          C       0.49392   0.93583   0.08999   0.5688950000
C          C       0.66134   0.81406   0.16001   0.5689690000
C          C       0.66134   0.68594   0.08999   0.5686750000
C          C       0.51590   0.91022   0.31191  -0.0543350000
C          C       0.51590   0.58979   0.43810  -0.0545420000
C          C       0.34870   0.66044   0.31193  -0.0532220000
C          C       0.34869   0.83957   0.43808  -0.0534070000
C          C       0.48410   0.58979   0.18810  -0.0544970000
C          C       0.48411   0.91022   0.06191  -0.0544280000
C          C       0.65131   0.83957   0.18809  -0.0533200000
C          C       0.65131   0.66044   0.06192  -0.0532320000
C          C       0.51820   0.90509   0.26254   0.0665730000
C          C       0.51820   0.59491   0.48747   0.0665280000
C          C       0.35120   0.65525   0.26255   0.0664940000
C          C       0.35120   0.84476   0.48746   0.0663780000
C          C       0.48180   0.59491   0.23747   0.0667010000
C          C       0.48180   0.90509   0.01253   0.0664400000
C          C       0.64880   0.84475   0.23745   0.0665160000
C          C       0.64880   0.65525   0.01255   0.0663770000
C          C       0.51730   0.89919   0.21309  -0.0320490000
C          C       0.51730   0.60081   0.03692  -0.0319010000
C          C       0.35048   0.64924   0.21310  -0.0300160000
C          C       0.35048   0.85077   0.03691  -0.0299920000
C          C       0.48270   0.60081   0.28692  -0.0319730000
C          C       0.48270   0.89919   0.46309  -0.0321430000
C          C       0.64952   0.85076   0.28691  -0.0302190000
C          C       0.64952   0.64924   0.46310  -0.0299590000
C          C       0.53303   0.86197   0.25850   0.0808540000
C          C       0.53303   0.63803   0.49151   0.0808910000
C          C       0.36611   0.61217   0.25858   0.0812490000
C          C       0.36611   0.88784   0.49143   0.0813810000
C          C       0.46697   0.63803   0.24150   0.0807050000
C          C       0.46697   0.86198   0.00850   0.0809440000
C          C       0.63389   0.88783   0.24143   0.0812130000
C          C       0.63389   0.61217   0.00857   0.0814240000
C          C       0.53936   0.84432   0.28190  -0.1411150000
C          C       0.53936   0.65568   0.46811  -0.1408720000
C          C       0.37242   0.59459   0.28199  -0.1406740000
C          C       0.37242   0.90542   0.46802  -0.1403410000
C          C       0.46064   0.65568   0.21811  -0.1409140000
C          C       0.46064   0.84433   0.03189  -0.1410570000
C          C       0.62758   0.90541   0.21801  -0.1405370000
C          C       0.62758   0.59459   0.03200  -0.1407000000
H          H       0.55130   0.81199   0.27901   0.1074870000
H          H       0.55130   0.68802   0.47101   0.1076730000
H          H       0.38443   0.56229   0.27914   0.1072280000
H          H       0.38443   0.93771   0.47086   0.1074150000
H          H       0.44870   0.68801   0.22101   0.1075680000
H          H       0.44870   0.81199   0.02900   0.1075370000
H          H       0.61557   0.93771   0.22086   0.1074120000
H          H       0.61557   0.56229   0.02914   0.1073830000
C          C       0.53057   0.86759   0.30790  -0.0986090000
C          C       0.53057   0.63242   0.44211  -0.0985570000
C          C       0.36354   0.61789   0.30797  -0.0997200000
C          C       0.36354   0.88212   0.44204  -0.0999150000
C          C       0.46943   0.63241   0.19210  -0.0984810000
C          C       0.46943   0.86759   0.05790  -0.0985740000
C          C       0.63646   0.88212   0.19203  -0.0998760000
C          C       0.63646   0.61789   0.05797  -0.0998000000
H          H       0.53488   0.85390   0.32576   0.1000360000
H          H       0.53488   0.64611   0.42425   0.1001530000
H          H       0.36784   0.60427   0.32586   0.1001990000
H          H       0.36784   0.89574   0.42415   0.1003530000
H          H       0.46512   0.64611   0.17424   0.1000870000
H          H       0.46512   0.85390   0.07576   0.1000700000
H          H       0.63216   0.89574   0.17415   0.1003030000
H          H       0.63216   0.60427   0.07586   0.1002610000
C          C       0.53267   0.85687   0.20922  -0.1052310000
C          C       0.53267   0.64313   0.04079  -0.1052620000
C          C       0.36587   0.60694   0.20927  -0.1057620000
C          C       0.36587   0.89307   0.04073  -0.1058300000
C          C       0.46733   0.64314   0.29080  -0.1051780000
C          C       0.46733   0.85687   0.45921  -0.1053220000
C          C       0.63413   0.89307   0.29074  -0.1056390000
C          C       0.63413   0.60694   0.45927  -0.1058510000
H          H       0.53846   0.83980   0.18823   0.1011850000
H          H       0.53846   0.66021   0.06177   0.1012310000
H          H       0.37170   0.58981   0.18831   0.1013560000
H          H       0.37170   0.91019   0.06169   0.1014110000
H          H       0.46154   0.66021   0.31178   0.1012920000
H          H       0.46154   0.83980   0.43823   0.1011870000
H          H       0.62830   0.91020   0.31169   0.1014150000
H          H       0.62830   0.58981   0.43831   0.1013170000
C          C       0.54069   0.83882   0.23126  -0.1459360000
C          C       0.54069   0.66118   0.01875  -0.1457060000
C          C       0.37385   0.58897   0.23136  -0.1459620000
C          C       0.37385   0.91104   0.01864  -0.1458020000
C          C       0.45931   0.66118   0.26875  -0.1457480000
C          C       0.45931   0.83882   0.48126  -0.1458190000
C          C       0.62615   0.91104   0.26865  -0.1458000000
C          C       0.62615   0.58897   0.48136  -0.1458570000
H          H       0.55310   0.80665   0.22812   0.1093330000
H          H       0.55310   0.69335   0.02188   0.1093910000
H          H       0.38630   0.55682   0.22828   0.1092970000
H          H       0.38630   0.94318   0.02173   0.1093620000
H          H       0.44690   0.69335   0.27188   0.1094510000
H          H       0.44690   0.80666   0.47813   0.1092590000
H          H       0.61370   0.94319   0.27173   0.1094460000
H          H       0.61370   0.55682   0.47828   0.1091700000
O          O       0.49788   0.97524   0.34273  -0.5815670000
O          O       0.49788   0.52477   0.40728  -0.5821350000
O          O       0.66278   0.72511   0.34272  -0.5824170000
O          O       0.66278   0.77490   0.40729  -0.5828480000
O          O       0.50212   0.52477   0.15728  -0.5820730000
O          O       0.50212   0.97524   0.09273  -0.5818690000
O          O       0.33722   0.77490   0.15729  -0.5827510000
O          O       0.33722   0.72510   0.09272  -0.5825140000
O          O       0.50396   0.95812   0.19187  -0.5660910000
O          O       0.50396   0.54189   0.05813  -0.5662250000
O          O       0.33727   0.70814   0.19185  -0.5653290000
O          O       0.33727   0.79186   0.05815  -0.5655100000
O          O       0.49603   0.54189   0.30813  -0.5663520000
O          O       0.49603   0.95812   0.44188  -0.5659620000
O          O       0.66273   0.79187   0.30816  -0.5656980000
O          O       0.66273   0.70814   0.44185  -0.5651580000
O          O       0.50593   0.91636   0.35988  -0.5476350000
O          O       0.50592   0.58365   0.39014  -0.5474710000
O          O       0.33926   0.66650   0.35989  -0.5477180000
O          O       0.33925   0.83351   0.39012  -0.5474570000
O          O       0.49408   0.58365   0.14013  -0.5475730000
O          O       0.49408   0.91636   0.10988  -0.5475760000
O          O       0.66075   0.83351   0.14012  -0.5475280000
O          O       0.66075   0.66650   0.10988  -0.5475150000
O          O       0.50410   0.89178   0.16531  -0.5673820000
O          O       0.50410   0.60823   0.08470  -0.5672950000
O          O       0.33739   0.64177   0.16530  -0.5666660000
O          O       0.33739   0.85823   0.08470  -0.5666330000
O          O       0.49590   0.60823   0.33470  -0.5671160000
O          O       0.49590   0.89178   0.41531  -0.5675230000
O          O       0.66261   0.85824   0.33470  -0.5665970000
O          O       0.66261   0.64177   0.41530  -0.5668570000
N          N       0.56370   0.96052   0.39944  -0.2148340000
N          N       0.56370   0.53948   0.35056  -0.2147450000
N          N       0.39682   0.71091   0.39933  -0.2186080000
N          N       0.39682   0.78909   0.35068  -0.2189080000
N          N       0.43630   0.53948   0.10056  -0.2147140000
N          N       0.43630   0.96052   0.14944  -0.2146760000
N          N       0.60318   0.78909   0.10068  -0.2187570000
N          N       0.60318   0.71091   0.14933  -0.2186960000
N          N       0.43828   0.95988   0.39661  -0.2111570000
N          N       0.43828   0.54013   0.35340  -0.2112120000
N          N       0.60469   0.70944   0.39668  -0.2110920000
N          N       0.60469   0.79057   0.35333  -0.2110820000
N          N       0.56172   0.54013   0.10340  -0.2111170000
N          N       0.56172   0.95988   0.14661  -0.2111170000
N          N       0.39531   0.79057   0.10333  -0.2111160000
N          N       0.39531   0.70944   0.14667  -0.2111490000
C          C       0.64606   0.96088   0.39863   0.0989600000
C          C       0.64606   0.53913   0.35139   0.0989950000
C          C       0.47916   0.71100   0.39853   0.1016920000
C          C       0.47916   0.78901   0.35149   0.1017600000
C          C       0.35394   0.53913   0.10138   0.0988510000
C          C       0.35394   0.96088   0.14863   0.0989460000
C          C       0.52085   0.78900   0.10148   0.1017200000
C          C       0.52085   0.71100   0.14852   0.1017090000
C          C       0.35598   0.96122   0.39776   0.1038340000
C          C       0.35598   0.53879   0.35224   0.1038390000
C          C       0.52241   0.71117   0.39770   0.1023370000
C          C       0.52241   0.78884   0.35230   0.1021850000
C          C       0.64402   0.53879   0.10225   0.1038810000
C          C       0.64402   0.96122   0.14776   0.1038270000
C          C       0.47759   0.78884   0.10230   0.1022210000
C          C       0.47759   0.71117   0.14771   0.1022600000
C          C       0.50779   0.91726   0.18867   0.5500680000
C          C       0.50779   0.58275   0.06134   0.5500520000
C          C       0.34105   0.66727   0.18865   0.5484730000
C          C       0.34105   0.83273   0.06135   0.5486250000
C          C       0.49222   0.58275   0.31134   0.5500170000
C          C       0.49222   0.91726   0.43867   0.5501520000
C          C       0.65895   0.83273   0.31135   0.5488270000
C          C       0.65895   0.66727   0.43866   0.5485130000
C          C       0.41882   0.98370   0.41819   0.0952770000
C          C       0.41882   0.51631   0.33182   0.0953520000
C          C       0.58524   0.73333   0.41824   0.0961430000
C          C       0.58524   0.76667   0.33177   0.0961280000
C          C       0.58118   0.51631   0.08182   0.0952570000
C          C       0.58118   0.98369   0.16819   0.0952770000
C          C       0.41476   0.76668   0.08178   0.0959820000
C          C       0.41476   0.73333   0.16823   0.0960530000
H          H       0.43705   0.50127   0.43478   0.1067390000
H          H       0.43705   0.99874   0.31523   0.1065650000
H          H       0.60347   0.75082   0.43484   0.1065210000
H          H       0.60347   0.74918   0.31516   0.1062800000
H          H       0.56295   0.99874   0.06523   0.1066720000
H          H       0.56295   0.50126   0.18477   0.1066990000
H          H       0.39653   0.74918   0.06516   0.1064560000
H          H       0.39653   0.75082   0.18485   0.1065030000
C          C       0.58400   0.99471   0.41336   0.0951930000
C          C       0.58400   0.50530   0.33665   0.0949470000
C          C       0.41718   0.74521   0.41304   0.0976070000
C          C       0.41718   0.75479   0.33697   0.0976150000
C          C       0.41600   0.50530   0.08665   0.0949980000
C          C       0.41600   0.99471   0.16336   0.0949200000
C          C       0.58282   0.75479   0.08697   0.0975430000
C          C       0.58282   0.74521   0.16304   0.0975070000
H          H       0.56670   0.52152   0.42459   0.0933040000
H          H       0.56670   0.97849   0.32542   0.0930990000
H          H       0.39995   0.77220   0.42412   0.0926780000
H          H       0.39995   0.72781   0.32588   0.0925110000
H          H       0.43330   0.97849   0.07541   0.0931570000
H          H       0.43330   0.52152   0.17458   0.0932770000
H          H       0.60005   0.72780   0.07588   0.0925550000
H          H       0.60005   0.77220   0.17412   0.0926480000
C          C       0.62476   0.92504   0.38467  -0.1694680000
C          C       0.62476   0.57496   0.36534  -0.1694810000
C          C       0.45779   0.67510   0.38476  -0.1699370000
C          C       0.45779   0.82491   0.36525  -0.1698880000
C          C       0.37524   0.57496   0.11533  -0.1693840000
C          C       0.37524   0.92504   0.13467  -0.1695140000
C          C       0.54221   0.82491   0.11525  -0.1699290000
C          C       0.54221   0.67510   0.13476  -0.1699370000
H          H       0.63938   0.89640   0.37312   0.1444010000
H          H       0.63938   0.60360   0.37689   0.1445880000
H          H       0.47239   0.64631   0.37337   0.1446790000
H          H       0.47239   0.85369   0.37663   0.1448310000
H          H       0.36062   0.60360   0.12688   0.1444830000
H          H       0.36062   0.89640   0.12312   0.1444370000
H          H       0.52761   0.85369   0.12663   0.1447680000
H          H       0.52761   0.64631   0.12337   0.1447310000
C          C       0.58408   0.92634   0.38555   0.0905450000
C          C       0.58408   0.57366   0.36446   0.0907900000
C          C       0.41713   0.67652   0.38562   0.0916980000
C          C       0.41713   0.82349   0.36439   0.0919900000
C          C       0.41592   0.57367   0.11446   0.0906570000
C          C       0.41592   0.92634   0.13554   0.0907040000
C          C       0.58288   0.82349   0.11438   0.0918930000
C          C       0.58288   0.67652   0.13562   0.0918600000
H          H       0.56652   0.89960   0.37459   0.0944990000
H          H       0.56652   0.60041   0.37543   0.0946580000
H          H       0.39950   0.64972   0.37483   0.0946920000
H          H       0.39950   0.85029   0.37518   0.0949020000
H          H       0.43348   0.60041   0.12542   0.0946260000
H          H       0.43348   0.89960   0.12459   0.0945610000
H          H       0.60050   0.85029   0.12518   0.0948080000
H          H       0.60050   0.64971   0.12482   0.0947330000
C          C       0.62472   0.99615   0.41331  -0.1834990000
C          C       0.62472   0.50386   0.33670  -0.1835480000
C          C       0.45790   0.74651   0.41300  -0.1853590000
C          C       0.45790   0.75350   0.33701  -0.1855240000
C          C       0.37528   0.50386   0.08669  -0.1834620000
C          C       0.37528   0.99615   0.16331  -0.1834630000
C          C       0.54210   0.75350   0.08701  -0.1853640000
C          C       0.54210   0.74651   0.16300  -0.1853410000
H          H       0.63961   0.52500   0.42424   0.1158330000
H          H       0.63961   0.97501   0.32577   0.1156160000
H          H       0.47288   0.77541   0.42376   0.1163100000
H          H       0.47288   0.72460   0.32625   0.1161150000
H          H       0.36039   0.97501   0.07576   0.1156810000
H          H       0.36039   0.52500   0.17424   0.1157460000
H          H       0.52712   0.72460   0.07624   0.1161670000
H          H       0.52712   0.77541   0.17375   0.1162240000
C          C       0.37816   0.98535   0.41948  -0.1783160000
C          C       0.37816   0.51465   0.33053  -0.1783830000
C          C       0.54459   0.73520   0.41946  -0.1782440000
C          C       0.54459   0.76481   0.33055  -0.1783190000
C          C       0.62184   0.51465   0.08053  -0.1782640000
C          C       0.62184   0.98535   0.16947  -0.1782410000
C          C       0.45542   0.76481   0.08055  -0.1782200000
C          C       0.45541   0.73520   0.16945  -0.1782810000
H          H       0.36405   0.50462   0.43760   0.1266120000
H          H       0.36405   0.99539   0.31240   0.1263420000
H          H       0.53046   0.75452   0.43756   0.1268010000
H          H       0.53046   0.74549   0.31245   0.1266530000
H          H       0.63595   0.99539   0.06240   0.1263780000
H          H       0.63595   0.50462   0.18760   0.1264280000
H          H       0.46954   0.74549   0.06244   0.1267020000
H          H       0.46954   0.75451   0.18755   0.1267770000
C          C       0.37645   0.93681   0.37525  -0.1737440000
C          C       0.37645   0.56320   0.37476  -0.1735560000
C          C       0.54286   0.68667   0.37522  -0.1739060000
C          C       0.54286   0.81334   0.37479  -0.1735190000
C          C       0.62355   0.56320   0.12475  -0.1735410000
C          C       0.62355   0.93681   0.12524  -0.1735930000
C          C       0.45714   0.81334   0.12478  -0.1736840000
C          C       0.45714   0.68666   0.12522  -0.1737850000
H          H       0.36105   0.91717   0.35777   0.1402180000
H          H       0.36105   0.58284   0.39224   0.1402870000
H          H       0.52745   0.66708   0.35773   0.1399170000
H          H       0.52745   0.83293   0.39228   0.1400130000
H          H       0.63896   0.58284   0.14224   0.1402260000
H          H       0.63896   0.91717   0.10776   0.1402020000
H          H       0.47255   0.83292   0.14228   0.1399990000
H          H       0.47255   0.66708   0.10772   0.1399900000
C          C       0.41721   0.93727   0.37551   0.0950360000
C          C       0.41721   0.56274   0.37450   0.0951650000
C          C       0.58362   0.68695   0.37555   0.0969180000
C          C       0.58362   0.81306   0.37446   0.0969830000
C          C       0.58279   0.56274   0.12449   0.0949930000
C          C       0.58279   0.93726   0.12551   0.0949680000
C          C       0.41638   0.81306   0.12447   0.0969970000
C          C       0.41638   0.68695   0.12554   0.0970210000
H          H       0.43409   0.91869   0.35850   0.0998660000
H          H       0.43409   0.58132   0.39152   0.0999770000
H          H       0.60049   0.66834   0.35853   0.0993560000
H          H       0.60049   0.83166   0.39148   0.0994560000
H          H       0.56591   0.58132   0.14151   0.0999620000
H          H       0.56591   0.91869   0.10849   0.0999410000
H          H       0.39951   0.83166   0.14147   0.0994410000
H          H       0.39951   0.66834   0.10854   0.0993670000
Zn         Zn      0.83438   0.95708   0.39887   0.8153940000
Zn         Zn      0.83438   0.54293   0.35114   0.8152910000
Zn         Zn      0.66758   0.70718   0.39888   0.8142320000
Zn         Zn      0.66758   0.79283   0.35113   0.8142810000
Zn         Zn      0.83229   0.54293   0.10114   0.8153250000
Zn         Zn      0.83229   0.95707   0.14886   0.8153790000
Zn         Zn      0.66576   0.79283   0.10113   0.8142490000
Zn         Zn      0.66576   0.70718   0.14888   0.8142500000
C          C       0.84381   0.92867   0.28952  -0.1423600000
C          C       0.84382   0.57134   0.46048  -0.1423620000
C          C       0.67663   0.67884   0.28952  -0.1417550000
C          C       0.67663   0.82117   0.46049  -0.1415620000
C          C       0.82285   0.57134   0.21048  -0.1424500000
C          C       0.82285   0.92867   0.03952  -0.1423610000
C          C       0.99004   0.82117   0.21049  -0.1417150000
C          C       0.99004   0.67884   0.03951  -0.1417710000
H          H       0.83341   0.96171   0.29276   0.1275950000
H          H       0.83341   0.53830   0.45725   0.1273670000
H          H       0.66611   0.71183   0.29271   0.1271060000
H          H       0.66611   0.78818   0.45730   0.1267680000
H          H       0.83326   0.53830   0.20724   0.1274660000
H          H       0.83326   0.96171   0.04276   0.1275790000
H          H       0.66723   0.78818   0.20730   0.1269110000
H          H       0.66723   0.71183   0.04270   0.1270240000
C          C       0.84441   0.92303   0.23942  -0.1369080000
C          C       0.84441   0.57697   0.01059  -0.1371720000
C          C       0.67748   0.67313   0.23940  -0.1374400000
C          C       0.67748   0.82688   0.01060  -0.1376290000
C          C       0.82226   0.57697   0.26059  -0.1371260000
C          C       0.82226   0.92304   0.48942  -0.1369520000
C          C       0.98919   0.82688   0.26060  -0.1375820000
C          C       0.98919   0.67313   0.48941  -0.1374600000
H          H       0.83321   0.95569   0.24238   0.1224670000
H          H       0.83321   0.54431   0.00762   0.1224160000
H          H       0.66626   0.70577   0.24230   0.1221690000
H          H       0.66626   0.79424   0.00769   0.1221310000
H          H       0.83346   0.54431   0.25763   0.1223180000
H          H       0.83346   0.95570   0.49238   0.1226090000
H          H       0.66708   0.79424   0.25770   0.1220190000
H          H       0.66708   0.70577   0.49231   0.1222290000
C          C       0.83941   0.93583   0.34000   0.5686380000
C          C       0.83941   0.56418   0.41001   0.5690990000
C          C       0.67199   0.68594   0.33999   0.5687200000
C          C       0.67200   0.81407   0.41002   0.5689590000
C          C       0.82726   0.56418   0.16001   0.5691160000
C          C       0.82726   0.93583   0.08999   0.5688950000
C          C       0.99467   0.81406   0.16001   0.5689690000
C          C       0.99467   0.68594   0.08999   0.5686750000
C          C       0.84923   0.91022   0.31191  -0.0543350000
C          C       0.84923   0.58979   0.43810  -0.0545420000
C          C       0.68203   0.66044   0.31193  -0.0532220000
C          C       0.68203   0.83957   0.43808  -0.0534070000
C          C       0.81744   0.58979   0.18810  -0.0544970000
C          C       0.81744   0.91022   0.06191  -0.0544280000
C          C       0.98464   0.83957   0.18809  -0.0533200000
C          C       0.98464   0.66044   0.06192  -0.0532320000
C          C       0.85154   0.90509   0.26254   0.0665730000
C          C       0.85154   0.59491   0.48747   0.0665280000
C          C       0.68453   0.65525   0.26255   0.0664940000
C          C       0.68453   0.84476   0.48746   0.0663780000
C          C       0.81513   0.59491   0.23747   0.0667010000
C          C       0.81513   0.90509   0.01253   0.0664400000
C          C       0.98213   0.84475   0.23745   0.0665160000
C          C       0.98213   0.65525   0.01255   0.0663770000
C          C       0.85063   0.89919   0.21309  -0.0320490000
C          C       0.85063   0.60081   0.03692  -0.0319010000
C          C       0.68381   0.64924   0.21310  -0.0300160000
C          C       0.68381   0.85077   0.03691  -0.0299920000
C          C       0.81603   0.60081   0.28692  -0.0319730000
C          C       0.81603   0.89919   0.46309  -0.0321430000
C          C       0.98285   0.85076   0.28691  -0.0302190000
C          C       0.98285   0.64924   0.46310  -0.0299590000
C          C       0.86636   0.86197   0.25850   0.0808540000
C          C       0.86636   0.63803   0.49151   0.0808910000
C          C       0.69944   0.61217   0.25858   0.0812490000
C          C       0.69944   0.88784   0.49143   0.0813810000
C          C       0.80031   0.63803   0.24150   0.0807050000
C          C       0.80031   0.86198   0.00850   0.0809440000
C          C       0.96723   0.88783   0.24143   0.0812130000
C          C       0.96723   0.61217   0.00857   0.0814240000
C          C       0.87269   0.84432   0.28190  -0.1411150000
C          C       0.87269   0.65568   0.46811  -0.1408720000
C          C       0.70576   0.59459   0.28199  -0.1406740000
C          C       0.70576   0.90542   0.46802  -0.1403410000
C          C       0.79398   0.65568   0.21811  -0.1409140000
C          C       0.79398   0.84433   0.03189  -0.1410570000
C          C       0.96091   0.90541   0.21801  -0.1405370000
C          C       0.96091   0.59459   0.03200  -0.1407000000
H          H       0.88463   0.81199   0.27901   0.1074870000
H          H       0.88463   0.68802   0.47101   0.1076730000
H          H       0.71777   0.56229   0.27914   0.1072280000
H          H       0.71777   0.93771   0.47086   0.1074150000
H          H       0.78204   0.68801   0.22101   0.1075680000
H          H       0.78204   0.81199   0.02900   0.1075370000
H          H       0.94890   0.93771   0.22086   0.1074120000
H          H       0.94890   0.56229   0.02914   0.1073830000
C          C       0.86390   0.86759   0.30790  -0.0986090000
C          C       0.86390   0.63242   0.44211  -0.0985570000
C          C       0.69687   0.61789   0.30797  -0.0997200000
C          C       0.69687   0.88212   0.44204  -0.0999150000
C          C       0.80276   0.63241   0.19210  -0.0984810000
C          C       0.80276   0.86759   0.05790  -0.0985740000
C          C       0.96980   0.88212   0.19203  -0.0998760000
C          C       0.96980   0.61789   0.05797  -0.0998000000
H          H       0.86821   0.85390   0.32576   0.1000360000
H          H       0.86821   0.64611   0.42425   0.1001530000
H          H       0.70117   0.60427   0.32586   0.1001990000
H          H       0.70117   0.89574   0.42415   0.1003530000
H          H       0.79845   0.64611   0.17424   0.1000870000
H          H       0.79845   0.85390   0.07576   0.1000700000
H          H       0.96549   0.89574   0.17415   0.1003030000
H          H       0.96549   0.60427   0.07586   0.1002610000
C          C       0.86600   0.85687   0.20922  -0.1052310000
C          C       0.86600   0.64313   0.04079  -0.1052620000
C          C       0.69920   0.60694   0.20927  -0.1057620000
C          C       0.69920   0.89307   0.04073  -0.1058300000
C          C       0.80067   0.64314   0.29080  -0.1051780000
C          C       0.80067   0.85687   0.45921  -0.1053220000
C          C       0.96747   0.89307   0.29074  -0.1056390000
C          C       0.96747   0.60694   0.45927  -0.1058510000
H          H       0.87179   0.83980   0.18823   0.1011850000
H          H       0.87179   0.66021   0.06177   0.1012310000
H          H       0.70503   0.58981   0.18831   0.1013560000
H          H       0.70503   0.91019   0.06169   0.1014110000
H          H       0.79487   0.66021   0.31178   0.1012920000
H          H       0.79487   0.83980   0.43823   0.1011870000
H          H       0.96163   0.91020   0.31169   0.1014150000
H          H       0.96163   0.58981   0.43831   0.1013170000
C          C       0.87403   0.83882   0.23126  -0.1459360000
C          C       0.87403   0.66118   0.01875  -0.1457060000
C          C       0.70718   0.58897   0.23136  -0.1459620000
C          C       0.70718   0.91104   0.01864  -0.1458020000
C          C       0.79264   0.66118   0.26875  -0.1457480000
C          C       0.79264   0.83882   0.48126  -0.1458190000
C          C       0.95948   0.91104   0.26865  -0.1458000000
C          C       0.95948   0.58897   0.48136  -0.1458570000
H          H       0.88643   0.80665   0.22812   0.1093330000
H          H       0.88643   0.69335   0.02188   0.1093910000
H          H       0.71963   0.55682   0.22828   0.1092970000
H          H       0.71963   0.94318   0.02173   0.1093620000
H          H       0.78024   0.69335   0.27188   0.1094510000
H          H       0.78024   0.80666   0.47813   0.1092590000
H          H       0.94704   0.94319   0.27173   0.1094460000
H          H       0.94704   0.55682   0.47828   0.1091700000
O          O       0.83121   0.97524   0.34273  -0.5815670000
O          O       0.83121   0.52477   0.40728  -0.5821350000
O          O       0.99611   0.72511   0.34272  -0.5824170000
O          O       0.99611   0.77490   0.40729  -0.5828480000
O          O       0.83545   0.52477   0.15728  -0.5820730000
O          O       0.83545   0.97524   0.09273  -0.5818690000
O          O       0.67056   0.77490   0.15729  -0.5827510000
O          O       0.67056   0.72510   0.09272  -0.5825140000
O          O       0.83730   0.95812   0.19187  -0.5660910000
O          O       0.83730   0.54189   0.05813  -0.5662250000
O          O       0.67061   0.70814   0.19185  -0.5653290000
O          O       0.67061   0.79186   0.05815  -0.5655100000
O          O       0.82937   0.54189   0.30813  -0.5663520000
O          O       0.82937   0.95812   0.44188  -0.5659620000
O          O       0.99606   0.79187   0.30816  -0.5656980000
O          O       0.99606   0.70814   0.44185  -0.5651580000
O          O       0.83926   0.91636   0.35988  -0.5476350000
O          O       0.83926   0.58365   0.39014  -0.5474710000
O          O       0.67259   0.66650   0.35989  -0.5477180000
O          O       0.67259   0.83351   0.39012  -0.5474570000
O          O       0.82741   0.58365   0.14013  -0.5475730000
O          O       0.82741   0.91636   0.10988  -0.5475760000
O          O       0.99408   0.83351   0.14012  -0.5475280000
O          O       0.99408   0.66650   0.10988  -0.5475150000
O          O       0.83744   0.89178   0.16531  -0.5673820000
O          O       0.83744   0.60823   0.08470  -0.5672950000
O          O       0.67073   0.64177   0.16530  -0.5666660000
O          O       0.67073   0.85823   0.08470  -0.5666330000
O          O       0.82923   0.60823   0.33470  -0.5671160000
O          O       0.82923   0.89178   0.41531  -0.5675230000
O          O       0.99594   0.85824   0.33470  -0.5665970000
O          O       0.99594   0.64177   0.41530  -0.5668570000
N          N       0.89704   0.96052   0.39944  -0.2148340000
N          N       0.89704   0.53948   0.35056  -0.2147450000
N          N       0.73015   0.71091   0.39933  -0.2186080000
N          N       0.73015   0.78909   0.35068  -0.2189080000
N          N       0.76963   0.53948   0.10056  -0.2147140000
N          N       0.76963   0.96052   0.14944  -0.2146760000
N          N       0.93651   0.78909   0.10068  -0.2187570000
N          N       0.93651   0.71091   0.14933  -0.2186960000
N          N       0.77161   0.95988   0.39661  -0.2111570000
N          N       0.77161   0.54013   0.35340  -0.2112120000
N          N       0.93803   0.70944   0.39668  -0.2110920000
N          N       0.93803   0.79057   0.35333  -0.2110820000
N          N       0.89505   0.54013   0.10340  -0.2111170000
N          N       0.89505   0.95988   0.14661  -0.2111170000
N          N       0.72864   0.79057   0.10333  -0.2111160000
N          N       0.72864   0.70944   0.14667  -0.2111490000
C          C       0.97939   0.96088   0.39863   0.0989600000
C          C       0.97939   0.53913   0.35139   0.0989950000
C          C       0.81249   0.71100   0.39853   0.1016920000
C          C       0.81249   0.78901   0.35149   0.1017600000
C          C       0.68728   0.53913   0.10138   0.0988510000
C          C       0.68728   0.96088   0.14863   0.0989460000
C          C       0.85418   0.78900   0.10148   0.1017200000
C          C       0.85418   0.71100   0.14852   0.1017090000
C          C       0.68931   0.96122   0.39776   0.1038340000
C          C       0.68931   0.53879   0.35224   0.1038390000
C          C       0.85574   0.71117   0.39770   0.1023370000
C          C       0.85574   0.78884   0.35230   0.1021850000
C          C       0.97735   0.53879   0.10225   0.1038810000
C          C       0.97735   0.96122   0.14776   0.1038270000
C          C       0.81092   0.78884   0.10230   0.1022210000
C          C       0.81092   0.71117   0.14771   0.1022600000
C          C       0.84112   0.91726   0.18867   0.5500680000
C          C       0.84112   0.58275   0.06134   0.5500520000
C          C       0.67439   0.66727   0.18865   0.5484730000
C          C       0.67438   0.83273   0.06135   0.5486250000
C          C       0.82555   0.58275   0.31134   0.5500170000
C          C       0.82555   0.91726   0.43867   0.5501520000
C          C       0.99228   0.83273   0.31135   0.5488270000
C          C       0.99228   0.66727   0.43866   0.5485130000
C          C       0.75216   0.98370   0.41819   0.0952770000
C          C       0.75216   0.51631   0.33182   0.0953520000
C          C       0.91858   0.73333   0.41824   0.0961430000
C          C       0.91858   0.76667   0.33177   0.0961280000
C          C       0.91451   0.51631   0.08182   0.0952570000
C          C       0.91451   0.98369   0.16819   0.0952770000
C          C       0.74809   0.76668   0.08178   0.0959820000
C          C       0.74809   0.73333   0.16823   0.0960530000
H          H       0.77038   0.50127   0.43478   0.1067390000
H          H       0.77038   0.99874   0.31523   0.1065650000
H          H       0.93680   0.75082   0.43484   0.1065210000
H          H       0.93680   0.74918   0.31516   0.1062800000
H          H       0.89629   0.99874   0.06523   0.1066720000
H          H       0.89629   0.50126   0.18477   0.1066990000
H          H       0.72987   0.74918   0.06516   0.1064560000
H          H       0.72987   0.75082   0.18485   0.1065030000
C          C       0.91734   0.99471   0.41336   0.0951930000
C          C       0.91734   0.50530   0.33665   0.0949470000
C          C       0.75052   0.74521   0.41304   0.0976070000
C          C       0.75052   0.75479   0.33697   0.0976150000
C          C       0.74933   0.50530   0.08665   0.0949980000
C          C       0.74933   0.99471   0.16336   0.0949200000
C          C       0.91615   0.75479   0.08697   0.0975430000
C          C       0.91615   0.74521   0.16304   0.0975070000
H          H       0.90004   0.52152   0.42459   0.0933040000
H          H       0.90004   0.97849   0.32542   0.0930990000
H          H       0.73328   0.77220   0.42412   0.0926780000
H          H       0.73328   0.72781   0.32588   0.0925110000
H          H       0.76663   0.97849   0.07541   0.0931570000
H          H       0.76663   0.52152   0.17458   0.0932770000
H          H       0.93338   0.72780   0.07588   0.0925550000
H          H       0.93338   0.77220   0.17412   0.0926480000
C          C       0.95809   0.92504   0.38467  -0.1694680000
C          C       0.95809   0.57496   0.36534  -0.1694810000
C          C       0.79113   0.67510   0.38476  -0.1699370000
C          C       0.79113   0.82491   0.36525  -0.1698880000
C          C       0.70857   0.57496   0.11533  -0.1693840000
C          C       0.70857   0.92504   0.13467  -0.1695140000
C          C       0.87554   0.82491   0.11525  -0.1699290000
C          C       0.87554   0.67510   0.13476  -0.1699370000
H          H       0.97271   0.89640   0.37312   0.1444010000
H          H       0.97271   0.60360   0.37689   0.1445880000
H          H       0.80572   0.64631   0.37337   0.1446790000
H          H       0.80572   0.85369   0.37663   0.1448310000
H          H       0.69395   0.60360   0.12688   0.1444830000
H          H       0.69395   0.89640   0.12312   0.1444370000
H          H       0.86095   0.85369   0.12663   0.1447680000
H          H       0.86095   0.64631   0.12337   0.1447310000
C          C       0.91742   0.92634   0.38555   0.0905450000
C          C       0.91742   0.57366   0.36446   0.0907900000
C          C       0.75046   0.67652   0.38562   0.0916980000
C          C       0.75046   0.82349   0.36439   0.0919900000
C          C       0.74925   0.57367   0.11446   0.0906570000
C          C       0.74925   0.92634   0.13554   0.0907040000
C          C       0.91621   0.82349   0.11438   0.0918930000
C          C       0.91621   0.67652   0.13562   0.0918600000
H          H       0.89985   0.89960   0.37459   0.0944990000
H          H       0.89985   0.60041   0.37543   0.0946580000
H          H       0.73283   0.64972   0.37483   0.0946920000
H          H       0.73283   0.85029   0.37518   0.0949020000
H          H       0.76681   0.60041   0.12542   0.0946260000
H          H       0.76681   0.89960   0.12459   0.0945610000
H          H       0.93384   0.85029   0.12518   0.0948080000
H          H       0.93384   0.64971   0.12482   0.0947330000
C          C       0.95805   0.99615   0.41331  -0.1834990000
C          C       0.95805   0.50386   0.33670  -0.1835480000
C          C       0.79123   0.74651   0.41300  -0.1853590000
C          C       0.79123   0.75350   0.33701  -0.1855240000
C          C       0.70862   0.50386   0.08669  -0.1834620000
C          C       0.70862   0.99615   0.16331  -0.1834630000
C          C       0.87543   0.75350   0.08701  -0.1853640000
C          C       0.87543   0.74651   0.16300  -0.1853410000
H          H       0.97295   0.52500   0.42424   0.1158330000
H          H       0.97295   0.97501   0.32577   0.1156160000
H          H       0.80622   0.77541   0.42376   0.1163100000
H          H       0.80622   0.72460   0.32625   0.1161150000
H          H       0.69372   0.97501   0.07576   0.1156810000
H          H       0.69372   0.52500   0.17424   0.1157460000
H          H       0.86045   0.72460   0.07624   0.1161670000
H          H       0.86045   0.77541   0.17375   0.1162240000
C          C       0.71150   0.98535   0.41948  -0.1783160000
C          C       0.71150   0.51465   0.33053  -0.1783830000
C          C       0.87792   0.73520   0.41946  -0.1782440000
C          C       0.87792   0.76481   0.33055  -0.1783190000
C          C       0.95517   0.51465   0.08053  -0.1782640000
C          C       0.95517   0.98535   0.16947  -0.1782410000
C          C       0.78875   0.76481   0.08055  -0.1782200000
C          C       0.78875   0.73520   0.16945  -0.1782810000
H          H       0.69738   0.50462   0.43760   0.1266120000
H          H       0.69738   0.99539   0.31240   0.1263420000
H          H       0.86379   0.75452   0.43756   0.1268010000
H          H       0.86379   0.74549   0.31245   0.1266530000
H          H       0.96929   0.99539   0.06240   0.1263780000
H          H       0.96929   0.50462   0.18760   0.1264280000
H          H       0.80288   0.74549   0.06244   0.1267020000
H          H       0.80288   0.75451   0.18755   0.1267770000
C          C       0.70978   0.93681   0.37525  -0.1737440000
C          C       0.70978   0.56320   0.37476  -0.1735560000
C          C       0.87620   0.68667   0.37522  -0.1739060000
C          C       0.87620   0.81334   0.37479  -0.1735190000
C          C       0.95688   0.56320   0.12475  -0.1735410000
C          C       0.95688   0.93681   0.12524  -0.1735930000
C          C       0.79047   0.81334   0.12478  -0.1736840000
C          C       0.79047   0.68666   0.12522  -0.1737850000
H          H       0.69438   0.91717   0.35777   0.1402180000
H          H       0.69438   0.58284   0.39224   0.1402870000
H          H       0.86078   0.66708   0.35773   0.1399170000
H          H       0.86078   0.83293   0.39228   0.1400130000
H          H       0.97229   0.58284   0.14224   0.1402260000
H          H       0.97229   0.91717   0.10776   0.1402020000
H          H       0.80589   0.83292   0.14228   0.1399990000
H          H       0.80589   0.66708   0.10772   0.1399900000
C          C       0.75054   0.93727   0.37551   0.0950360000
C          C       0.75054   0.56274   0.37450   0.0951650000
C          C       0.91696   0.68695   0.37555   0.0969180000
C          C       0.91696   0.81306   0.37446   0.0969830000
C          C       0.91612   0.56274   0.12449   0.0949930000
C          C       0.91612   0.93726   0.12551   0.0949680000
C          C       0.74971   0.81306   0.12447   0.0969970000
C          C       0.74971   0.68695   0.12554   0.0970210000
H          H       0.76742   0.91869   0.35850   0.0998660000
H          H       0.76742   0.58132   0.39152   0.0999770000
H          H       0.93383   0.66834   0.35853   0.0993560000
H          H       0.93383   0.83166   0.39148   0.0994560000
H          H       0.89924   0.58132   0.14151   0.0999620000
H          H       0.89924   0.91869   0.10849   0.0999410000
H          H       0.73284   0.83166   0.14147   0.0994410000
H          H       0.73284   0.66834   0.10854   0.0993670000
Zn         Zn      0.16771   0.45708   0.89887   0.8153940000
Zn         Zn      0.16771   0.04293   0.85115   0.8152910000
Zn         Zn      0.00091   0.20718   0.89888   0.8142320000
Zn         Zn      0.00091   0.29283   0.85113   0.8142810000
Zn         Zn      0.16562   0.04293   0.60114   0.8153250000
Zn         Zn      0.16562   0.45707   0.64886   0.8153790000
Zn         Zn     -0.00091   0.29283   0.60113   0.8142490000
Zn         Zn     -0.00091   0.20718   0.64888   0.8142500000
C          C       0.17715   0.42867   0.78953  -0.1423600000
C          C       0.17715   0.07133   0.96049  -0.1423620000
C          C       0.00996   0.17884   0.78952  -0.1417550000
C          C       0.00996   0.32117   0.96049  -0.1415620000
C          C       0.15619   0.07134   0.71048  -0.1424500000
C          C       0.15619   0.42867   0.53952  -0.1423610000
C          C       0.32337   0.32117   0.71049  -0.1417150000
C          C       0.32337   0.17884   0.53951  -0.1417710000
H          H       0.16674   0.46171   0.79277   0.1275950000
H          H       0.16674   0.03830   0.95725   0.1273670000
H          H      -0.00056   0.21183   0.79271   0.1271060000
H          H      -0.00056   0.28818   0.95730   0.1267680000
H          H       0.16659   0.03829   0.70724   0.1274660000
H          H       0.16659   0.46171   0.54276   0.1275790000
H          H       0.00056   0.28818   0.70730   0.1269110000
H          H       0.00056   0.21183   0.54270   0.1270240000
C          C       0.17774   0.42303   0.73942  -0.1369080000
C          C       0.17774   0.07697   0.51058  -0.1371720000
C          C       0.01081   0.17313   0.73941  -0.1374400000
C          C       0.01081   0.32688   0.51060  -0.1376290000
C          C       0.15559   0.07697   0.76059  -0.1371260000
C          C       0.15559   0.42304   0.98942  -0.1369520000
C          C       0.32252   0.32688   0.76060  -0.1375820000
C          C       0.32252   0.17313   0.98941  -0.1374600000
H          H       0.16654   0.45569   0.74237   0.1224670000
H          H       0.16654   0.04431   0.50762   0.1224160000
H          H      -0.00041   0.20576   0.74230   0.1221690000
H          H      -0.00041   0.29424   0.50770   0.1221310000
H          H       0.16679   0.04431   0.75763   0.1223180000
H          H       0.16679   0.45570   0.99238   0.1226090000
H          H       0.00041   0.29424   0.75770   0.1220190000
H          H       0.00041   0.20577   0.99231   0.1222290000
C          C       0.17274   0.43583   0.84000   0.5686380000
C          C       0.17274   0.06417   0.91001   0.5690990000
C          C       0.00533   0.18594   0.84000   0.5687200000
C          C       0.00533   0.31406   0.91002   0.5689590000
C          C       0.16059   0.06417   0.66001   0.5691160000
C          C       0.16059   0.43583   0.58999   0.5688950000
C          C       0.32800   0.31406   0.66001   0.5689690000
C          C       0.32800   0.18594   0.58999   0.5686750000
C          C       0.18256   0.41022   0.81191  -0.0543350000
C          C       0.18256   0.08979   0.93810  -0.0545420000
C          C       0.01536   0.16044   0.81193  -0.0532220000
C          C       0.01536   0.33957   0.93808  -0.0534070000
C          C       0.15077   0.08979   0.68809  -0.0544970000
C          C       0.15077   0.41021   0.56190  -0.0544280000
C          C       0.31797   0.33957   0.68808  -0.0533200000
C          C       0.31797   0.16044   0.56192  -0.0532320000
C          C       0.18487   0.40509   0.76253   0.0665730000
C          C       0.18487   0.09491   0.98747   0.0665280000
C          C       0.01787   0.15525   0.76255   0.0664940000
C          C       0.01787   0.34476   0.98746   0.0663780000
C          C       0.14846   0.09491   0.73747   0.0667010000
C          C       0.14846   0.40509   0.51253   0.0664400000
C          C       0.31547   0.34475   0.73745   0.0665160000
C          C       0.31547   0.15525   0.51255   0.0663770000
C          C       0.18397   0.39919   0.71309  -0.0320490000
C          C       0.18397   0.10082   0.53692  -0.0319010000
C          C       0.01715   0.14924   0.71310  -0.0300160000
C          C       0.01715   0.35076   0.53691  -0.0299920000
C          C       0.14937   0.10081   0.78692  -0.0319730000
C          C       0.14937   0.39919   0.96309  -0.0321430000
C          C       0.31619   0.35077   0.78691  -0.0302190000
C          C       0.31619   0.14924   0.96310  -0.0299590000
C          C       0.19969   0.36198   0.75850   0.0808540000
C          C       0.19969   0.13803   0.99150   0.0808910000
C          C       0.03277   0.11217   0.75858   0.0812490000
C          C       0.03277   0.38783   0.99143   0.0813810000
C          C       0.13364   0.13803   0.74150   0.0807050000
C          C       0.13364   0.36198   0.50850   0.0809440000
C          C       0.30056   0.38783   0.74143   0.0812130000
C          C       0.30056   0.11217   0.50857   0.0814240000
C          C       0.20602   0.34432   0.78190  -0.1411150000
C          C       0.20602   0.15568   0.96811  -0.1408720000
C          C       0.03909   0.09459   0.78199  -0.1406740000
C          C       0.03909   0.40542   0.96802  -0.1403410000
C          C       0.12731   0.15568   0.71811  -0.1409140000
C          C       0.12731   0.34432   0.53189  -0.1410570000
C          C       0.29424   0.40541   0.71801  -0.1405370000
C          C       0.29424   0.09459   0.53199  -0.1407000000
H          H       0.21796   0.31199   0.77901   0.1074870000
H          H       0.21796   0.18802   0.97101   0.1076730000
H          H       0.05110   0.06229   0.77914   0.1072280000
H          H       0.05110   0.43771   0.97086   0.1074150000
H          H       0.11537   0.18801   0.72101   0.1075680000
H          H       0.11537   0.31199   0.52900   0.1075370000
H          H       0.28223   0.43771   0.72086   0.1074120000
H          H       0.28223   0.06229   0.52914   0.1073830000
C          C       0.19724   0.36759   0.80790  -0.0986090000
C          C       0.19724   0.13242   0.94211  -0.0985570000
C          C       0.03020   0.11789   0.80797  -0.0997200000
C          C       0.03020   0.38212   0.94204  -0.0999150000
C          C       0.13610   0.13241   0.69210  -0.0984810000
C          C       0.13610   0.36759   0.55790  -0.0985740000
C          C       0.30313   0.38211   0.69204  -0.0998760000
C          C       0.30313   0.11789   0.55797  -0.0998000000
H          H       0.20155   0.35390   0.82576   0.1000360000
H          H       0.20155   0.14611   0.92425   0.1001530000
H          H       0.03451   0.10426   0.82586   0.1001990000
H          H       0.03451   0.39574   0.92415   0.1003530000
H          H       0.13179   0.14611   0.67424   0.1000870000
H          H       0.13179   0.35390   0.57576   0.1000700000
H          H       0.29883   0.39574   0.67415   0.1003030000
H          H       0.29883   0.10426   0.57586   0.1002610000
C          C       0.19933   0.35687   0.70921  -0.1052310000
C          C       0.19933   0.14313   0.54079  -0.1052620000
C          C       0.03253   0.10694   0.70927  -0.1057620000
C          C       0.03253   0.39307   0.54073  -0.1058300000
C          C       0.13400   0.14313   0.79079  -0.1051780000
C          C       0.13400   0.35687   0.95921  -0.1053220000
C          C       0.30080   0.39307   0.79073  -0.1056390000
C          C       0.30080   0.10693   0.95927  -0.1058510000
H          H       0.20513   0.33980   0.68823   0.1011850000
H          H       0.20513   0.16020   0.56177   0.1012310000
H          H       0.03837   0.08981   0.68831   0.1013560000
H          H       0.03837   0.41019   0.56169   0.1014110000
H          H       0.12821   0.16020   0.81178   0.1012920000
H          H       0.12821   0.33980   0.93824   0.1011870000
H          H       0.29497   0.41019   0.81169   0.1014150000
H          H       0.29497   0.08981   0.93831   0.1013170000
C          C       0.20736   0.33882   0.73126  -0.1459360000
C          C       0.20736   0.16118   0.51875  -0.1457060000
C          C       0.04052   0.08896   0.73135  -0.1459620000
C          C       0.04052   0.41104   0.51865  -0.1458020000
C          C       0.12597   0.16118   0.76875  -0.1457480000
C          C       0.12597   0.33882   0.98127  -0.1458190000
C          C       0.29282   0.41104   0.76865  -0.1458000000
C          C       0.29282   0.08897   0.98136  -0.1458570000
H          H       0.21976   0.30665   0.72813   0.1093330000
H          H       0.21976   0.19335   0.52188   0.1093910000
H          H       0.05296   0.05682   0.72827   0.1092970000
H          H       0.05296   0.44318   0.52173   0.1093620000
H          H       0.11357   0.19335   0.77188   0.1094510000
H          H       0.11357   0.30666   0.97813   0.1092590000
H          H       0.28037   0.44318   0.77173   0.1094460000
H          H       0.28037   0.05682   0.97828   0.1091700000
O          O       0.16455   0.47524   0.84273  -0.5815670000
O          O       0.16455   0.02477   0.90728  -0.5821350000
O          O       0.32945   0.22511   0.84272  -0.5824170000
O          O       0.32945   0.27490   0.90729  -0.5828480000
O          O       0.16879   0.02477   0.65728  -0.5820730000
O          O       0.16879   0.47523   0.59272  -0.5818690000
O          O       0.00389   0.27490   0.65729  -0.5827510000
O          O       0.00389   0.22511   0.59272  -0.5825140000
O          O       0.17063   0.45811   0.69187  -0.5660910000
O          O       0.17063   0.04189   0.55813  -0.5662250000
O          O       0.00394   0.20814   0.69185  -0.5653290000
O          O       0.00394   0.29187   0.55815  -0.5655100000
O          O       0.16270   0.04189   0.80813  -0.5663520000
O          O       0.16270   0.45811   0.94187  -0.5659620000
O          O       0.32939   0.29187   0.80815  -0.5656980000
O          O       0.32939   0.20814   0.94185  -0.5651580000
O          O       0.17259   0.41636   0.85987  -0.5476350000
O          O       0.17259   0.08365   0.89014  -0.5474710000
O          O       0.00592   0.16650   0.85989  -0.5477180000
O          O       0.00592   0.33350   0.89012  -0.5474570000
O          O       0.16074   0.08364   0.64013  -0.5475730000
O          O       0.16074   0.41636   0.60988  -0.5475760000
O          O       0.32741   0.33351   0.64012  -0.5475280000
O          O       0.32741   0.16650   0.60989  -0.5475150000
O          O       0.17077   0.39177   0.66531  -0.5673820000
O          O       0.17077   0.10822   0.58469  -0.5672950000
O          O       0.00406   0.14177   0.66531  -0.5666660000
O          O       0.00406   0.35823   0.58470  -0.5666330000
O          O       0.16256   0.10823   0.83469  -0.5671160000
O          O       0.16256   0.39177   0.91531  -0.5675230000
O          O       0.32927   0.35824   0.83470  -0.5665970000
O          O       0.32927   0.14177   0.91530  -0.5668570000
N          N       0.23037   0.46052   0.89945  -0.2148340000
N          N       0.23037   0.03948   0.85056  -0.2147450000
N          N       0.06349   0.21091   0.89933  -0.2186080000
N          N       0.06349   0.28909   0.85067  -0.2189080000
N          N       0.10296   0.03948   0.60056  -0.2147140000
N          N       0.10296   0.46052   0.64944  -0.2146760000
N          N       0.26985   0.28909   0.60067  -0.2187570000
N          N       0.26985   0.21091   0.64933  -0.2186960000
N          N       0.10495   0.45988   0.89661  -0.2111570000
N          N       0.10495   0.04012   0.85340  -0.2112120000
N          N       0.27136   0.20944   0.89668  -0.2110920000
N          N       0.27136   0.29057   0.85333  -0.2110820000
N          N       0.22839   0.04013   0.60340  -0.2111170000
N          N       0.22839   0.45987   0.64660  -0.2111170000
N          N       0.06197   0.29057   0.60333  -0.2111160000
N          N       0.06197   0.20944   0.64667  -0.2111490000
C          C       0.31272   0.46088   0.89863   0.0989600000
C          C       0.31272   0.03913   0.85139   0.0989950000
C          C       0.14582   0.21100   0.89853   0.1016920000
C          C       0.14582   0.28901   0.85149   0.1017600000
C          C       0.02061   0.03913   0.60138   0.0988510000
C          C       0.02061   0.46088   0.64863   0.0989460000
C          C       0.18751   0.28900   0.60148   0.1017200000
C          C       0.18751   0.21100   0.64853   0.1017090000
C          C       0.02265   0.46121   0.89777   0.1038340000
C          C       0.02265   0.03879   0.85225   0.1038390000
C          C       0.18908   0.21116   0.89770   0.1023370000
C          C       0.18908   0.28884   0.85231   0.1021850000
C          C       0.31069   0.03878   0.60225   0.1038810000
C          C       0.31069   0.46122   0.64776   0.1038270000
C          C       0.14426   0.28884   0.60230   0.1022210000
C          C       0.14426   0.21116   0.64770   0.1022600000
C          C       0.17445   0.41726   0.68867   0.5500680000
C          C       0.17445   0.08275   0.56134   0.5500520000
C          C       0.00772   0.16727   0.68866   0.5484730000
C          C       0.00772   0.33273   0.56135   0.5486250000
C          C       0.15888   0.08274   0.81134   0.5500170000
C          C       0.15888   0.41726   0.93867   0.5501520000
C          C       0.32562   0.33273   0.81135   0.5488270000
C          C       0.32562   0.16727   0.93866   0.5485130000
C          C       0.08549   0.48370   0.91819   0.0952770000
C          C       0.08549   0.01631   0.83182   0.0953520000
C          C       0.25191   0.23333   0.91824   0.0961430000
C          C       0.25191   0.26668   0.83178   0.0961280000
C          C       0.24784   0.01631   0.58182   0.0952570000
C          C       0.24784   0.48369   0.66819   0.0952770000
C          C       0.08142   0.26668   0.58178   0.0959820000
C          C       0.08142   0.23333   0.66823   0.0960530000
H          H       0.10371   0.00127   0.93478   0.1067390000
H          H       0.10371   0.49874   0.81524   0.1065650000
H          H       0.27013   0.25082   0.93485   0.1065210000
H          H       0.27013   0.24919   0.81517   0.1062800000
H          H       0.22962   0.49874   0.56523   0.1066720000
H          H       0.22962   0.00127   0.68478   0.1066990000
H          H       0.06320   0.24918   0.56516   0.1064560000
H          H       0.06320   0.25082   0.68484   0.1065030000
C          C       0.25067   0.49471   0.91336   0.0951930000
C          C       0.25067   0.00529   0.83665   0.0949470000
C          C       0.08385   0.24521   0.91304   0.0976070000
C          C       0.08385   0.25479   0.83697   0.0976150000
C          C       0.08266   0.00529   0.58665   0.0949980000
C          C       0.08266   0.49471   0.66336   0.0949200000
C          C       0.24948   0.25479   0.58697   0.0975430000
C          C       0.24948   0.24521   0.66304   0.0975070000
H          H       0.23337   0.02152   0.92459   0.0933040000
H          H       0.23337   0.47848   0.82542   0.0930990000
H          H       0.06662   0.27220   0.92412   0.0926780000
H          H       0.06662   0.22780   0.82588   0.0925110000
H          H       0.09996   0.47849   0.57542   0.0931570000
H          H       0.09996   0.02151   0.67458   0.0932770000
H          H       0.26672   0.22781   0.57588   0.0925550000
H          H       0.26672   0.27220   0.67412   0.0926480000
C          C       0.29143   0.42504   0.88467  -0.1694680000
C          C       0.29143   0.07496   0.86534  -0.1694810000
C          C       0.12446   0.17509   0.88475  -0.1699370000
C          C       0.12446   0.32491   0.86525  -0.1698880000
C          C       0.04191   0.07496   0.61533  -0.1693840000
C          C       0.04191   0.42504   0.63467  -0.1695140000
C          C       0.20887   0.32490   0.61525  -0.1699290000
C          C       0.20887   0.17510   0.63476  -0.1699370000
H          H       0.30605   0.39640   0.87312   0.1444010000
H          H       0.30605   0.10360   0.87689   0.1445880000
H          H       0.13905   0.14631   0.87338   0.1446790000
H          H       0.13905   0.35369   0.87664   0.1448310000
H          H       0.02729   0.10360   0.62689   0.1444830000
H          H       0.02729   0.39640   0.62311   0.1444370000
H          H       0.19428   0.35369   0.62663   0.1447680000
H          H       0.19428   0.14631   0.62337   0.1447310000
C          C       0.25075   0.42634   0.88555   0.0905450000
C          C       0.25075   0.07367   0.86446   0.0907900000
C          C       0.08379   0.17652   0.88562   0.0916980000
C          C       0.08379   0.32349   0.86439   0.0919900000
C          C       0.08258   0.07367   0.61446   0.0906570000
C          C       0.08258   0.42634   0.63555   0.0907040000
C          C       0.24954   0.32349   0.61438   0.0918930000
C          C       0.24954   0.17652   0.63562   0.0918600000
H          H       0.23319   0.39960   0.87458   0.0944990000
H          H       0.23319   0.10040   0.87543   0.0946580000
H          H       0.06616   0.14971   0.87482   0.0946920000
H          H       0.06616   0.35029   0.87518   0.0949020000
H          H       0.10015   0.10040   0.62542   0.0946260000
H          H       0.10015   0.39960   0.62459   0.0945610000
H          H       0.26717   0.35029   0.62518   0.0948080000
H          H       0.26717   0.14971   0.62482   0.0947330000
C          C       0.29138   0.49614   0.91331  -0.1834990000
C          C       0.29138   0.00385   0.83670  -0.1835480000
C          C       0.12457   0.24651   0.91300  -0.1853590000
C          C       0.12457   0.25350   0.83701  -0.1855240000
C          C       0.04195   0.00386   0.58669  -0.1834620000
C          C       0.04195   0.49615   0.66331  -0.1834630000
C          C       0.20877   0.25350   0.58701  -0.1853640000
C          C       0.20877   0.24651   0.66300  -0.1853410000
H          H       0.30628   0.02500   0.92424   0.1158330000
H          H       0.30628   0.47501   0.82577   0.1156160000
H          H       0.13955   0.27541   0.92376   0.1163100000
H          H       0.13955   0.22459   0.82625   0.1161150000
H          H       0.02705   0.47501   0.57576   0.1156810000
H          H       0.02705   0.02500   0.67424   0.1157460000
H          H       0.19378   0.22460   0.57625   0.1161670000
H          H       0.19378   0.27541   0.67375   0.1162240000
C          C       0.04483   0.48535   0.91948  -0.1783160000
C          C       0.04483   0.01465   0.83053  -0.1783830000
C          C       0.21125   0.23519   0.91946  -0.1782440000
C          C       0.21125   0.26481   0.83055  -0.1783190000
C          C       0.28850   0.01465   0.58053  -0.1782640000
C          C       0.28850   0.48535   0.66948  -0.1782410000
C          C       0.12208   0.26481   0.58055  -0.1782200000
C          C       0.12208   0.23520   0.66946  -0.1782810000
H          H       0.03071   0.00462   0.93761   0.1266120000
H          H       0.03071   0.49539   0.81241   0.1263420000
H          H       0.19712   0.25451   0.93756   0.1268010000
H          H       0.19712   0.24549   0.81245   0.1266530000
H          H       0.30262   0.49539   0.56240   0.1263780000
H          H       0.30262   0.00462   0.68760   0.1264280000
H          H       0.13621   0.24549   0.56244   0.1267020000
H          H       0.13621   0.25451   0.68756   0.1267770000
C          C       0.04312   0.43681   0.87525  -0.1737440000
C          C       0.04312   0.06320   0.87476  -0.1735560000
C          C       0.20953   0.18667   0.87522  -0.1739060000
C          C       0.20953   0.31334   0.87479  -0.1735190000
C          C       0.29022   0.06319   0.62475  -0.1735410000
C          C       0.29022   0.43681   0.62525  -0.1735930000
C          C       0.12380   0.31334   0.62478  -0.1736840000
C          C       0.12380   0.18666   0.62522  -0.1737850000
H          H       0.02771   0.41717   0.85777   0.1402180000
H          H       0.02771   0.08283   0.89224   0.1402870000
H          H       0.19411   0.16708   0.85772   0.1399170000
H          H       0.19411   0.33293   0.89228   0.1400130000
H          H       0.30562   0.08284   0.64224   0.1402260000
H          H       0.30562   0.41717   0.60776   0.1402020000
H          H       0.13922   0.33292   0.64228   0.1399990000
H          H       0.13922   0.16708   0.60772   0.1399900000
C          C       0.08388   0.43727   0.87551   0.0950360000
C          C       0.08388   0.06274   0.87450   0.0951650000
C          C       0.25029   0.18694   0.87555   0.0969180000
C          C       0.25029   0.31305   0.87446   0.0969830000
C          C       0.24946   0.06274   0.62450   0.0949930000
C          C       0.24946   0.43726   0.62551   0.0949680000
C          C       0.08304   0.31306   0.62447   0.0969970000
C          C       0.08304   0.18695   0.62554   0.0970210000
H          H       0.10076   0.41869   0.85850   0.0998660000
H          H       0.10076   0.08131   0.89151   0.0999770000
H          H       0.26716   0.16834   0.85854   0.0993560000
H          H       0.26716   0.33166   0.89148   0.0994560000
H          H       0.23258   0.08131   0.64151   0.0999620000
H          H       0.23258   0.41869   0.60850   0.0999410000
H          H       0.06617   0.33166   0.64147   0.0994410000
H          H       0.06617   0.16834   0.60853   0.0993670000
Zn         Zn      0.50105   0.45708   0.89887   0.8153940000
Zn         Zn      0.50105   0.04293   0.85115   0.8152910000
Zn         Zn      0.33424   0.20718   0.89888   0.8142320000
Zn         Zn      0.33424   0.29283   0.85113   0.8142810000
Zn         Zn      0.49895   0.04293   0.60114   0.8153250000
Zn         Zn      0.49895   0.45707   0.64886   0.8153790000
Zn         Zn      0.33242   0.29283   0.60113   0.8142490000
Zn         Zn      0.33242   0.20718   0.64888   0.8142500000
C          C       0.51048   0.42867   0.78953  -0.1423600000
C          C       0.51048   0.07133   0.96049  -0.1423620000
C          C       0.34330   0.17884   0.78952  -0.1417550000
C          C       0.34330   0.32117   0.96049  -0.1415620000
C          C       0.48952   0.07134   0.71048  -0.1424500000
C          C       0.48952   0.42867   0.53952  -0.1423610000
C          C       0.65670   0.32117   0.71049  -0.1417150000
C          C       0.65670   0.17884   0.53951  -0.1417710000
H          H       0.50007   0.46171   0.79277   0.1275950000
H          H       0.50007   0.03830   0.95725   0.1273670000
H          H       0.33277   0.21183   0.79271   0.1271060000
H          H       0.33277   0.28818   0.95730   0.1267680000
H          H       0.49993   0.03829   0.70724   0.1274660000
H          H       0.49993   0.46171   0.54276   0.1275790000
H          H       0.33389   0.28818   0.70730   0.1269110000
H          H       0.33389   0.21183   0.54270   0.1270240000
C          C       0.51107   0.42303   0.73942  -0.1369080000
C          C       0.51107   0.07697   0.51058  -0.1371720000
C          C       0.34415   0.17313   0.73941  -0.1374400000
C          C       0.34415   0.32688   0.51060  -0.1376290000
C          C       0.48893   0.07697   0.76059  -0.1371260000
C          C       0.48893   0.42304   0.98942  -0.1369520000
C          C       0.65585   0.32688   0.76060  -0.1375820000
C          C       0.65585   0.17313   0.98941  -0.1374600000
H          H       0.49988   0.45569   0.74237   0.1224670000
H          H       0.49988   0.04431   0.50762   0.1224160000
H          H       0.33292   0.20576   0.74230   0.1221690000
H          H       0.33292   0.29424   0.50770   0.1221310000
H          H       0.50012   0.04431   0.75763   0.1223180000
H          H       0.50012   0.45570   0.99238   0.1226090000
H          H       0.33374   0.29424   0.75770   0.1220190000
H          H       0.33374   0.20577   0.99231   0.1222290000
C          C       0.50607   0.43583   0.84000   0.5686380000
C          C       0.50608   0.06417   0.91001   0.5690990000
C          C       0.33866   0.18594   0.84000   0.5687200000
C          C       0.33866   0.31406   0.91002   0.5689590000
C          C       0.49393   0.06417   0.66001   0.5691160000
C          C       0.49392   0.43583   0.58999   0.5688950000
C          C       0.66134   0.31406   0.66001   0.5689690000
C          C       0.66134   0.18594   0.58999   0.5686750000
C          C       0.51590   0.41022   0.81191  -0.0543350000
C          C       0.51590   0.08979   0.93810  -0.0545420000
C          C       0.34870   0.16044   0.81193  -0.0532220000
C          C       0.34869   0.33957   0.93808  -0.0534070000
C          C       0.48410   0.08979   0.68809  -0.0544970000
C          C       0.48411   0.41021   0.56190  -0.0544280000
C          C       0.65131   0.33957   0.68808  -0.0533200000
C          C       0.65131   0.16044   0.56192  -0.0532320000
C          C       0.51820   0.40509   0.76253   0.0665730000
C          C       0.51820   0.09491   0.98747   0.0665280000
C          C       0.35120   0.15525   0.76255   0.0664940000
C          C       0.35120   0.34476   0.98746   0.0663780000
C          C       0.48180   0.09491   0.73747   0.0667010000
C          C       0.48180   0.40509   0.51253   0.0664400000
C          C       0.64880   0.34475   0.73745   0.0665160000
C          C       0.64880   0.15525   0.51255   0.0663770000
C          C       0.51730   0.39919   0.71309  -0.0320490000
C          C       0.51730   0.10082   0.53692  -0.0319010000
C          C       0.35048   0.14924   0.71310  -0.0300160000
C          C       0.35048   0.35076   0.53691  -0.0299920000
C          C       0.48270   0.10081   0.78692  -0.0319730000
C          C       0.48270   0.39919   0.96309  -0.0321430000
C          C       0.64952   0.35077   0.78691  -0.0302190000
C          C       0.64952   0.14924   0.96310  -0.0299590000
C          C       0.53303   0.36198   0.75850   0.0808540000
C          C       0.53303   0.13803   0.99150   0.0808910000
C          C       0.36611   0.11217   0.75858   0.0812490000
C          C       0.36611   0.38783   0.99143   0.0813810000
C          C       0.46697   0.13803   0.74150   0.0807050000
C          C       0.46697   0.36198   0.50850   0.0809440000
C          C       0.63389   0.38783   0.74143   0.0812130000
C          C       0.63389   0.11217   0.50857   0.0814240000
C          C       0.53936   0.34432   0.78190  -0.1411150000
C          C       0.53936   0.15568   0.96811  -0.1408720000
C          C       0.37242   0.09459   0.78199  -0.1406740000
C          C       0.37242   0.40542   0.96802  -0.1403410000
C          C       0.46064   0.15568   0.71811  -0.1409140000
C          C       0.46064   0.34432   0.53189  -0.1410570000
C          C       0.62758   0.40541   0.71801  -0.1405370000
C          C       0.62758   0.09459   0.53199  -0.1407000000
H          H       0.55130   0.31199   0.77901   0.1074870000
H          H       0.55130   0.18802   0.97101   0.1076730000
H          H       0.38443   0.06229   0.77914   0.1072280000
H          H       0.38443   0.43771   0.97086   0.1074150000
H          H       0.44870   0.18801   0.72101   0.1075680000
H          H       0.44870   0.31199   0.52900   0.1075370000
H          H       0.61557   0.43771   0.72086   0.1074120000
H          H       0.61557   0.06229   0.52914   0.1073830000
C          C       0.53057   0.36759   0.80790  -0.0986090000
C          C       0.53057   0.13242   0.94211  -0.0985570000
C          C       0.36354   0.11789   0.80797  -0.0997200000
C          C       0.36354   0.38212   0.94204  -0.0999150000
C          C       0.46943   0.13241   0.69210  -0.0984810000
C          C       0.46943   0.36759   0.55790  -0.0985740000
C          C       0.63646   0.38211   0.69204  -0.0998760000
C          C       0.63646   0.11789   0.55797  -0.0998000000
H          H       0.53488   0.35390   0.82576   0.1000360000
H          H       0.53488   0.14611   0.92425   0.1001530000
H          H       0.36784   0.10426   0.82586   0.1001990000
H          H       0.36784   0.39574   0.92415   0.1003530000
H          H       0.46512   0.14611   0.67424   0.1000870000
H          H       0.46512   0.35390   0.57576   0.1000700000
H          H       0.63216   0.39574   0.67415   0.1003030000
H          H       0.63216   0.10426   0.57586   0.1002610000
C          C       0.53267   0.35687   0.70921  -0.1052310000
C          C       0.53267   0.14313   0.54079  -0.1052620000
C          C       0.36587   0.10694   0.70927  -0.1057620000
C          C       0.36587   0.39307   0.54073  -0.1058300000
C          C       0.46733   0.14313   0.79079  -0.1051780000
C          C       0.46733   0.35687   0.95921  -0.1053220000
C          C       0.63413   0.39307   0.79073  -0.1056390000
C          C       0.63413   0.10693   0.95927  -0.1058510000
H          H       0.53846   0.33980   0.68823   0.1011850000
H          H       0.53846   0.16020   0.56177   0.1012310000
H          H       0.37170   0.08981   0.68831   0.1013560000
H          H       0.37170   0.41019   0.56169   0.1014110000
H          H       0.46154   0.16020   0.81178   0.1012920000
H          H       0.46154   0.33980   0.93824   0.1011870000
H          H       0.62830   0.41019   0.81169   0.1014150000
H          H       0.62830   0.08981   0.93831   0.1013170000
C          C       0.54069   0.33882   0.73126  -0.1459360000
C          C       0.54069   0.16118   0.51875  -0.1457060000
C          C       0.37385   0.08896   0.73135  -0.1459620000
C          C       0.37385   0.41104   0.51865  -0.1458020000
C          C       0.45931   0.16118   0.76875  -0.1457480000
C          C       0.45931   0.33882   0.98127  -0.1458190000
C          C       0.62615   0.41104   0.76865  -0.1458000000
C          C       0.62615   0.08897   0.98136  -0.1458570000
H          H       0.55310   0.30665   0.72813   0.1093330000
H          H       0.55310   0.19335   0.52188   0.1093910000
H          H       0.38630   0.05682   0.72827   0.1092970000
H          H       0.38630   0.44318   0.52173   0.1093620000
H          H       0.44690   0.19335   0.77188   0.1094510000
H          H       0.44690   0.30666   0.97813   0.1092590000
H          H       0.61370   0.44318   0.77173   0.1094460000
H          H       0.61370   0.05682   0.97828   0.1091700000
O          O       0.49788   0.47524   0.84273  -0.5815670000
O          O       0.49788   0.02477   0.90728  -0.5821350000
O          O       0.66278   0.22511   0.84272  -0.5824170000
O          O       0.66278   0.27490   0.90729  -0.5828480000
O          O       0.50212   0.02477   0.65728  -0.5820730000
O          O       0.50212   0.47523   0.59272  -0.5818690000
O          O       0.33722   0.27490   0.65729  -0.5827510000
O          O       0.33722   0.22511   0.59272  -0.5825140000
O          O       0.50396   0.45811   0.69187  -0.5660910000
O          O       0.50396   0.04189   0.55813  -0.5662250000
O          O       0.33727   0.20814   0.69185  -0.5653290000
O          O       0.33727   0.29187   0.55815  -0.5655100000
O          O       0.49603   0.04189   0.80813  -0.5663520000
O          O       0.49603   0.45811   0.94187  -0.5659620000
O          O       0.66273   0.29187   0.80815  -0.5656980000
O          O       0.66273   0.20814   0.94185  -0.5651580000
O          O       0.50593   0.41636   0.85987  -0.5476350000
O          O       0.50592   0.08365   0.89014  -0.5474710000
O          O       0.33926   0.16650   0.85989  -0.5477180000
O          O       0.33925   0.33350   0.89012  -0.5474570000
O          O       0.49408   0.08364   0.64013  -0.5475730000
O          O       0.49408   0.41636   0.60988  -0.5475760000
O          O       0.66075   0.33351   0.64012  -0.5475280000
O          O       0.66075   0.16650   0.60989  -0.5475150000
O          O       0.50410   0.39177   0.66531  -0.5673820000
O          O       0.50410   0.10822   0.58469  -0.5672950000
O          O       0.33739   0.14177   0.66531  -0.5666660000
O          O       0.33739   0.35823   0.58470  -0.5666330000
O          O       0.49590   0.10823   0.83469  -0.5671160000
O          O       0.49590   0.39177   0.91531  -0.5675230000
O          O       0.66261   0.35824   0.83470  -0.5665970000
O          O       0.66261   0.14177   0.91530  -0.5668570000
N          N       0.56370   0.46052   0.89945  -0.2148340000
N          N       0.56370   0.03948   0.85056  -0.2147450000
N          N       0.39682   0.21091   0.89933  -0.2186080000
N          N       0.39682   0.28909   0.85067  -0.2189080000
N          N       0.43630   0.03948   0.60056  -0.2147140000
N          N       0.43630   0.46052   0.64944  -0.2146760000
N          N       0.60318   0.28909   0.60067  -0.2187570000
N          N       0.60318   0.21091   0.64933  -0.2186960000
N          N       0.43828   0.45988   0.89661  -0.2111570000
N          N       0.43828   0.04012   0.85340  -0.2112120000
N          N       0.60469   0.20944   0.89668  -0.2110920000
N          N       0.60469   0.29057   0.85333  -0.2110820000
N          N       0.56172   0.04013   0.60340  -0.2111170000
N          N       0.56172   0.45987   0.64660  -0.2111170000
N          N       0.39531   0.29057   0.60333  -0.2111160000
N          N       0.39531   0.20944   0.64667  -0.2111490000
C          C       0.64606   0.46088   0.89863   0.0989600000
C          C       0.64606   0.03913   0.85139   0.0989950000
C          C       0.47916   0.21100   0.89853   0.1016920000
C          C       0.47916   0.28901   0.85149   0.1017600000
C          C       0.35394   0.03913   0.60138   0.0988510000
C          C       0.35394   0.46088   0.64863   0.0989460000
C          C       0.52085   0.28900   0.60148   0.1017200000
C          C       0.52085   0.21100   0.64853   0.1017090000
C          C       0.35598   0.46121   0.89777   0.1038340000
C          C       0.35598   0.03879   0.85225   0.1038390000
C          C       0.52241   0.21116   0.89770   0.1023370000
C          C       0.52241   0.28884   0.85231   0.1021850000
C          C       0.64402   0.03878   0.60225   0.1038810000
C          C       0.64402   0.46122   0.64776   0.1038270000
C          C       0.47759   0.28884   0.60230   0.1022210000
C          C       0.47759   0.21116   0.64770   0.1022600000
C          C       0.50779   0.41726   0.68867   0.5500680000
C          C       0.50779   0.08275   0.56134   0.5500520000
C          C       0.34105   0.16727   0.68866   0.5484730000
C          C       0.34105   0.33273   0.56135   0.5486250000
C          C       0.49222   0.08274   0.81134   0.5500170000
C          C       0.49222   0.41726   0.93867   0.5501520000
C          C       0.65895   0.33273   0.81135   0.5488270000
C          C       0.65895   0.16727   0.93866   0.5485130000
C          C       0.41882   0.48370   0.91819   0.0952770000
C          C       0.41882   0.01631   0.83182   0.0953520000
C          C       0.58524   0.23333   0.91824   0.0961430000
C          C       0.58524   0.26668   0.83178   0.0961280000
C          C       0.58118   0.01631   0.58182   0.0952570000
C          C       0.58118   0.48369   0.66819   0.0952770000
C          C       0.41476   0.26668   0.58178   0.0959820000
C          C       0.41476   0.23333   0.66823   0.0960530000
H          H       0.43705   0.00127   0.93478   0.1067390000
H          H       0.43705   0.49874   0.81524   0.1065650000
H          H       0.60347   0.25082   0.93485   0.1065210000
H          H       0.60347   0.24919   0.81517   0.1062800000
H          H       0.56295   0.49874   0.56523   0.1066720000
H          H       0.56295   0.00127   0.68478   0.1066990000
H          H       0.39653   0.24918   0.56516   0.1064560000
H          H       0.39653   0.25082   0.68484   0.1065030000
C          C       0.58400   0.49471   0.91336   0.0951930000
C          C       0.58400   0.00529   0.83665   0.0949470000
C          C       0.41718   0.24521   0.91304   0.0976070000
C          C       0.41718   0.25479   0.83697   0.0976150000
C          C       0.41600   0.00529   0.58665   0.0949980000
C          C       0.41600   0.49471   0.66336   0.0949200000
C          C       0.58282   0.25479   0.58697   0.0975430000
C          C       0.58282   0.24521   0.66304   0.0975070000
H          H       0.56670   0.02152   0.92459   0.0933040000
H          H       0.56670   0.47848   0.82542   0.0930990000
H          H       0.39995   0.27220   0.92412   0.0926780000
H          H       0.39995   0.22780   0.82588   0.0925110000
H          H       0.43330   0.47849   0.57542   0.0931570000
H          H       0.43330   0.02151   0.67458   0.0932770000
H          H       0.60005   0.22781   0.57588   0.0925550000
H          H       0.60005   0.27220   0.67412   0.0926480000
C          C       0.62476   0.42504   0.88467  -0.1694680000
C          C       0.62476   0.07496   0.86534  -0.1694810000
C          C       0.45779   0.17509   0.88475  -0.1699370000
C          C       0.45779   0.32491   0.86525  -0.1698880000
C          C       0.37524   0.07496   0.61533  -0.1693840000
C          C       0.37524   0.42504   0.63467  -0.1695140000
C          C       0.54221   0.32490   0.61525  -0.1699290000
C          C       0.54221   0.17510   0.63476  -0.1699370000
H          H       0.63938   0.39640   0.87312   0.1444010000
H          H       0.63938   0.10360   0.87689   0.1445880000
H          H       0.47239   0.14631   0.87338   0.1446790000
H          H       0.47239   0.35369   0.87664   0.1448310000
H          H       0.36062   0.10360   0.62689   0.1444830000
H          H       0.36062   0.39640   0.62311   0.1444370000
H          H       0.52761   0.35369   0.62663   0.1447680000
H          H       0.52761   0.14631   0.62337   0.1447310000
C          C       0.58408   0.42634   0.88555   0.0905450000
C          C       0.58408   0.07367   0.86446   0.0907900000
C          C       0.41713   0.17652   0.88562   0.0916980000
C          C       0.41713   0.32349   0.86439   0.0919900000
C          C       0.41592   0.07367   0.61446   0.0906570000
C          C       0.41592   0.42634   0.63555   0.0907040000
C          C       0.58288   0.32349   0.61438   0.0918930000
C          C       0.58288   0.17652   0.63562   0.0918600000
H          H       0.56652   0.39960   0.87458   0.0944990000
H          H       0.56652   0.10040   0.87543   0.0946580000
H          H       0.39950   0.14971   0.87482   0.0946920000
H          H       0.39950   0.35029   0.87518   0.0949020000
H          H       0.43348   0.10040   0.62542   0.0946260000
H          H       0.43348   0.39960   0.62459   0.0945610000
H          H       0.60050   0.35029   0.62518   0.0948080000
H          H       0.60050   0.14971   0.62482   0.0947330000
C          C       0.62472   0.49614   0.91331  -0.1834990000
C          C       0.62472   0.00385   0.83670  -0.1835480000
C          C       0.45790   0.24651   0.91300  -0.1853590000
C          C       0.45790   0.25350   0.83701  -0.1855240000
C          C       0.37528   0.00386   0.58669  -0.1834620000
C          C       0.37528   0.49615   0.66331  -0.1834630000
C          C       0.54210   0.25350   0.58701  -0.1853640000
C          C       0.54210   0.24651   0.66300  -0.1853410000
H          H       0.63961   0.02500   0.92424   0.1158330000
H          H       0.63961   0.47501   0.82577   0.1156160000
H          H       0.47288   0.27541   0.92376   0.1163100000
H          H       0.47288   0.22459   0.82625   0.1161150000
H          H       0.36039   0.47501   0.57576   0.1156810000
H          H       0.36039   0.02500   0.67424   0.1157460000
H          H       0.52712   0.22460   0.57625   0.1161670000
H          H       0.52712   0.27541   0.67375   0.1162240000
C          C       0.37816   0.48535   0.91948  -0.1783160000
C          C       0.37816   0.01465   0.83053  -0.1783830000
C          C       0.54459   0.23519   0.91946  -0.1782440000
C          C       0.54459   0.26481   0.83055  -0.1783190000
C          C       0.62184   0.01465   0.58053  -0.1782640000
C          C       0.62184   0.48535   0.66948  -0.1782410000
C          C       0.45542   0.26481   0.58055  -0.1782200000
C          C       0.45541   0.23520   0.66946  -0.1782810000
H          H       0.36405   0.00462   0.93761   0.1266120000
H          H       0.36405   0.49539   0.81241   0.1263420000
H          H       0.53046   0.25451   0.93756   0.1268010000
H          H       0.53046   0.24549   0.81245   0.1266530000
H          H       0.63595   0.49539   0.56240   0.1263780000
H          H       0.63595   0.00462   0.68760   0.1264280000
H          H       0.46954   0.24549   0.56244   0.1267020000
H          H       0.46954   0.25451   0.68756   0.1267770000
C          C       0.37645   0.43681   0.87525  -0.1737440000
C          C       0.37645   0.06320   0.87476  -0.1735560000
C          C       0.54286   0.18667   0.87522  -0.1739060000
C          C       0.54286   0.31334   0.87479  -0.1735190000
C          C       0.62355   0.06319   0.62475  -0.1735410000
C          C       0.62355   0.43681   0.62525  -0.1735930000
C          C       0.45714   0.31334   0.62478  -0.1736840000
C          C       0.45714   0.18666   0.62522  -0.1737850000
H          H       0.36105   0.41717   0.85777   0.1402180000
H          H       0.36105   0.08283   0.89224   0.1402870000
H          H       0.52745   0.16708   0.85772   0.1399170000
H          H       0.52745   0.33293   0.89228   0.1400130000
H          H       0.63896   0.08284   0.64224   0.1402260000
H          H       0.63896   0.41717   0.60776   0.1402020000
H          H       0.47255   0.33292   0.64228   0.1399990000
H          H       0.47255   0.16708   0.60772   0.1399900000
C          C       0.41721   0.43727   0.87551   0.0950360000
C          C       0.41721   0.06274   0.87450   0.0951650000
C          C       0.58362   0.18694   0.87555   0.0969180000
C          C       0.58362   0.31305   0.87446   0.0969830000
C          C       0.58279   0.06274   0.62450   0.0949930000
C          C       0.58279   0.43726   0.62551   0.0949680000
C          C       0.41638   0.31306   0.62447   0.0969970000
C          C       0.41638   0.18695   0.62554   0.0970210000
H          H       0.43409   0.41869   0.85850   0.0998660000
H          H       0.43409   0.08131   0.89151   0.0999770000
H          H       0.60049   0.16834   0.85854   0.0993560000
H          H       0.60049   0.33166   0.89148   0.0994560000
H          H       0.56591   0.08131   0.64151   0.0999620000
H          H       0.56591   0.41869   0.60850   0.0999410000
H          H       0.39951   0.33166   0.64147   0.0994410000
H          H       0.39951   0.16834   0.60853   0.0993670000
Zn         Zn      0.83438   0.45708   0.89887   0.8153940000
Zn         Zn      0.83438   0.04293   0.85115   0.8152910000
Zn         Zn      0.66758   0.20718   0.89888   0.8142320000
Zn         Zn      0.66758   0.29283   0.85113   0.8142810000
Zn         Zn      0.83229   0.04293   0.60114   0.8153250000
Zn         Zn      0.83229   0.45707   0.64886   0.8153790000
Zn         Zn      0.66576   0.29283   0.60113   0.8142490000
Zn         Zn      0.66576   0.20718   0.64888   0.8142500000
C          C       0.84381   0.42867   0.78953  -0.1423600000
C          C       0.84382   0.07133   0.96049  -0.1423620000
C          C       0.67663   0.17884   0.78952  -0.1417550000
C          C       0.67663   0.32117   0.96049  -0.1415620000
C          C       0.82285   0.07134   0.71048  -0.1424500000
C          C       0.82285   0.42867   0.53952  -0.1423610000
C          C       0.99004   0.32117   0.71049  -0.1417150000
C          C       0.99004   0.17884   0.53951  -0.1417710000
H          H       0.83341   0.46171   0.79277   0.1275950000
H          H       0.83341   0.03830   0.95725   0.1273670000
H          H       0.66611   0.21183   0.79271   0.1271060000
H          H       0.66611   0.28818   0.95730   0.1267680000
H          H       0.83326   0.03829   0.70724   0.1274660000
H          H       0.83326   0.46171   0.54276   0.1275790000
H          H       0.66723   0.28818   0.70730   0.1269110000
H          H       0.66723   0.21183   0.54270   0.1270240000
C          C       0.84441   0.42303   0.73942  -0.1369080000
C          C       0.84441   0.07697   0.51058  -0.1371720000
C          C       0.67748   0.17313   0.73941  -0.1374400000
C          C       0.67748   0.32688   0.51060  -0.1376290000
C          C       0.82226   0.07697   0.76059  -0.1371260000
C          C       0.82226   0.42304   0.98942  -0.1369520000
C          C       0.98919   0.32688   0.76060  -0.1375820000
C          C       0.98919   0.17313   0.98941  -0.1374600000
H          H       0.83321   0.45569   0.74237   0.1224670000
H          H       0.83321   0.04431   0.50762   0.1224160000
H          H       0.66626   0.20576   0.74230   0.1221690000
H          H       0.66626   0.29424   0.50770   0.1221310000
H          H       0.83346   0.04431   0.75763   0.1223180000
H          H       0.83346   0.45570   0.99238   0.1226090000
H          H       0.66708   0.29424   0.75770   0.1220190000
H          H       0.66708   0.20577   0.99231   0.1222290000
C          C       0.83941   0.43583   0.84000   0.5686380000
C          C       0.83941   0.06417   0.91001   0.5690990000
C          C       0.67199   0.18594   0.84000   0.5687200000
C          C       0.67200   0.31406   0.91002   0.5689590000
C          C       0.82726   0.06417   0.66001   0.5691160000
C          C       0.82726   0.43583   0.58999   0.5688950000
C          C       0.99467   0.31406   0.66001   0.5689690000
C          C       0.99467   0.18594   0.58999   0.5686750000
C          C       0.84923   0.41022   0.81191  -0.0543350000
C          C       0.84923   0.08979   0.93810  -0.0545420000
C          C       0.68203   0.16044   0.81193  -0.0532220000
C          C       0.68203   0.33957   0.93808  -0.0534070000
C          C       0.81744   0.08979   0.68809  -0.0544970000
C          C       0.81744   0.41021   0.56190  -0.0544280000
C          C       0.98464   0.33957   0.68808  -0.0533200000
C          C       0.98464   0.16044   0.56192  -0.0532320000
C          C       0.85154   0.40509   0.76253   0.0665730000
C          C       0.85154   0.09491   0.98747   0.0665280000
C          C       0.68453   0.15525   0.76255   0.0664940000
C          C       0.68453   0.34476   0.98746   0.0663780000
C          C       0.81513   0.09491   0.73747   0.0667010000
C          C       0.81513   0.40509   0.51253   0.0664400000
C          C       0.98213   0.34475   0.73745   0.0665160000
C          C       0.98213   0.15525   0.51255   0.0663770000
C          C       0.85063   0.39919   0.71309  -0.0320490000
C          C       0.85063   0.10082   0.53692  -0.0319010000
C          C       0.68381   0.14924   0.71310  -0.0300160000
C          C       0.68381   0.35076   0.53691  -0.0299920000
C          C       0.81603   0.10081   0.78692  -0.0319730000
C          C       0.81603   0.39919   0.96309  -0.0321430000
C          C       0.98285   0.35077   0.78691  -0.0302190000
C          C       0.98285   0.14924   0.96310  -0.0299590000
C          C       0.86636   0.36198   0.75850   0.0808540000
C          C       0.86636   0.13803   0.99150   0.0808910000
C          C       0.69944   0.11217   0.75858   0.0812490000
C          C       0.69944   0.38783   0.99143   0.0813810000
C          C       0.80031   0.13803   0.74150   0.0807050000
C          C       0.80031   0.36198   0.50850   0.0809440000
C          C       0.96723   0.38783   0.74143   0.0812130000
C          C       0.96723   0.11217   0.50857   0.0814240000
C          C       0.87269   0.34432   0.78190  -0.1411150000
C          C       0.87269   0.15568   0.96811  -0.1408720000
C          C       0.70576   0.09459   0.78199  -0.1406740000
C          C       0.70576   0.40542   0.96802  -0.1403410000
C          C       0.79398   0.15568   0.71811  -0.1409140000
C          C       0.79398   0.34432   0.53189  -0.1410570000
C          C       0.96091   0.40541   0.71801  -0.1405370000
C          C       0.96091   0.09459   0.53199  -0.1407000000
H          H       0.88463   0.31199   0.77901   0.1074870000
H          H       0.88463   0.18802   0.97101   0.1076730000
H          H       0.71777   0.06229   0.77914   0.1072280000
H          H       0.71777   0.43771   0.97086   0.1074150000
H          H       0.78204   0.18801   0.72101   0.1075680000
H          H       0.78204   0.31199   0.52900   0.1075370000
H          H       0.94890   0.43771   0.72086   0.1074120000
H          H       0.94890   0.06229   0.52914   0.1073830000
C          C       0.86390   0.36759   0.80790  -0.0986090000
C          C       0.86390   0.13242   0.94211  -0.0985570000
C          C       0.69687   0.11789   0.80797  -0.0997200000
C          C       0.69687   0.38212   0.94204  -0.0999150000
C          C       0.80276   0.13241   0.69210  -0.0984810000
C          C       0.80276   0.36759   0.55790  -0.0985740000
C          C       0.96980   0.38211   0.69204  -0.0998760000
C          C       0.96980   0.11789   0.55797  -0.0998000000
H          H       0.86821   0.35390   0.82576   0.1000360000
H          H       0.86821   0.14611   0.92425   0.1001530000
H          H       0.70117   0.10426   0.82586   0.1001990000
H          H       0.70117   0.39574   0.92415   0.1003530000
H          H       0.79845   0.14611   0.67424   0.1000870000
H          H       0.79845   0.35390   0.57576   0.1000700000
H          H       0.96549   0.39574   0.67415   0.1003030000
H          H       0.96549   0.10426   0.57586   0.1002610000
C          C       0.86600   0.35687   0.70921  -0.1052310000
C          C       0.86600   0.14313   0.54079  -0.1052620000
C          C       0.69920   0.10694   0.70927  -0.1057620000
C          C       0.69920   0.39307   0.54073  -0.1058300000
C          C       0.80067   0.14313   0.79079  -0.1051780000
C          C       0.80067   0.35687   0.95921  -0.1053220000
C          C       0.96747   0.39307   0.79073  -0.1056390000
C          C       0.96747   0.10693   0.95927  -0.1058510000
H          H       0.87179   0.33980   0.68823   0.1011850000
H          H       0.87179   0.16020   0.56177   0.1012310000
H          H       0.70503   0.08981   0.68831   0.1013560000
H          H       0.70503   0.41019   0.56169   0.1014110000
H          H       0.79487   0.16020   0.81178   0.1012920000
H          H       0.79487   0.33980   0.93824   0.1011870000
H          H       0.96163   0.41019   0.81169   0.1014150000
H          H       0.96163   0.08981   0.93831   0.1013170000
C          C       0.87403   0.33882   0.73126  -0.1459360000
C          C       0.87403   0.16118   0.51875  -0.1457060000
C          C       0.70718   0.08896   0.73135  -0.1459620000
C          C       0.70718   0.41104   0.51865  -0.1458020000
C          C       0.79264   0.16118   0.76875  -0.1457480000
C          C       0.79264   0.33882   0.98127  -0.1458190000
C          C       0.95948   0.41104   0.76865  -0.1458000000
C          C       0.95948   0.08897   0.98136  -0.1458570000
H          H       0.88643   0.30665   0.72813   0.1093330000
H          H       0.88643   0.19335   0.52188   0.1093910000
H          H       0.71963   0.05682   0.72827   0.1092970000
H          H       0.71963   0.44318   0.52173   0.1093620000
H          H       0.78024   0.19335   0.77188   0.1094510000
H          H       0.78024   0.30666   0.97813   0.1092590000
H          H       0.94704   0.44318   0.77173   0.1094460000
H          H       0.94704   0.05682   0.97828   0.1091700000
O          O       0.83121   0.47524   0.84273  -0.5815670000
O          O       0.83121   0.02477   0.90728  -0.5821350000
O          O       0.99611   0.22511   0.84272  -0.5824170000
O          O       0.99611   0.27490   0.90729  -0.5828480000
O          O       0.83545   0.02477   0.65728  -0.5820730000
O          O       0.83545   0.47523   0.59272  -0.5818690000
O          O       0.67056   0.27490   0.65729  -0.5827510000
O          O       0.67056   0.22511   0.59272  -0.5825140000
O          O       0.83730   0.45811   0.69187  -0.5660910000
O          O       0.83730   0.04189   0.55813  -0.5662250000
O          O       0.67061   0.20814   0.69185  -0.5653290000
O          O       0.67061   0.29187   0.55815  -0.5655100000
O          O       0.82937   0.04189   0.80813  -0.5663520000
O          O       0.82937   0.45811   0.94187  -0.5659620000
O          O       0.99606   0.29187   0.80815  -0.5656980000
O          O       0.99606   0.20814   0.94185  -0.5651580000
O          O       0.83926   0.41636   0.85987  -0.5476350000
O          O       0.83926   0.08365   0.89014  -0.5474710000
O          O       0.67259   0.16650   0.85989  -0.5477180000
O          O       0.67259   0.33350   0.89012  -0.5474570000
O          O       0.82741   0.08364   0.64013  -0.5475730000
O          O       0.82741   0.41636   0.60988  -0.5475760000
O          O       0.99408   0.33351   0.64012  -0.5475280000
O          O       0.99408   0.16650   0.60989  -0.5475150000
O          O       0.83744   0.39177   0.66531  -0.5673820000
O          O       0.83744   0.10822   0.58469  -0.5672950000
O          O       0.67073   0.14177   0.66531  -0.5666660000
O          O       0.67073   0.35823   0.58470  -0.5666330000
O          O       0.82923   0.10823   0.83469  -0.5671160000
O          O       0.82923   0.39177   0.91531  -0.5675230000
O          O       0.99594   0.35824   0.83470  -0.5665970000
O          O       0.99594   0.14177   0.91530  -0.5668570000
N          N       0.89704   0.46052   0.89945  -0.2148340000
N          N       0.89704   0.03948   0.85056  -0.2147450000
N          N       0.73015   0.21091   0.89933  -0.2186080000
N          N       0.73015   0.28909   0.85067  -0.2189080000
N          N       0.76963   0.03948   0.60056  -0.2147140000
N          N       0.76963   0.46052   0.64944  -0.2146760000
N          N       0.93651   0.28909   0.60067  -0.2187570000
N          N       0.93651   0.21091   0.64933  -0.2186960000
N          N       0.77161   0.45988   0.89661  -0.2111570000
N          N       0.77161   0.04012   0.85340  -0.2112120000
N          N       0.93803   0.20944   0.89668  -0.2110920000
N          N       0.93803   0.29057   0.85333  -0.2110820000
N          N       0.89505   0.04013   0.60340  -0.2111170000
N          N       0.89505   0.45987   0.64660  -0.2111170000
N          N       0.72864   0.29057   0.60333  -0.2111160000
N          N       0.72864   0.20944   0.64667  -0.2111490000
C          C       0.97939   0.46088   0.89863   0.0989600000
C          C       0.97939   0.03913   0.85139   0.0989950000
C          C       0.81249   0.21100   0.89853   0.1016920000
C          C       0.81249   0.28901   0.85149   0.1017600000
C          C       0.68728   0.03913   0.60138   0.0988510000
C          C       0.68728   0.46088   0.64863   0.0989460000
C          C       0.85418   0.28900   0.60148   0.1017200000
C          C       0.85418   0.21100   0.64853   0.1017090000
C          C       0.68931   0.46121   0.89777   0.1038340000
C          C       0.68931   0.03879   0.85225   0.1038390000
C          C       0.85574   0.21116   0.89770   0.1023370000
C          C       0.85574   0.28884   0.85231   0.1021850000
C          C       0.97735   0.03878   0.60225   0.1038810000
C          C       0.97735   0.46122   0.64776   0.1038270000
C          C       0.81092   0.28884   0.60230   0.1022210000
C          C       0.81092   0.21116   0.64770   0.1022600000
C          C       0.84112   0.41726   0.68867   0.5500680000
C          C       0.84112   0.08275   0.56134   0.5500520000
C          C       0.67439   0.16727   0.68866   0.5484730000
C          C       0.67438   0.33273   0.56135   0.5486250000
C          C       0.82555   0.08274   0.81134   0.5500170000
C          C       0.82555   0.41726   0.93867   0.5501520000
C          C       0.99228   0.33273   0.81135   0.5488270000
C          C       0.99228   0.16727   0.93866   0.5485130000
C          C       0.75216   0.48370   0.91819   0.0952770000
C          C       0.75216   0.01631   0.83182   0.0953520000
C          C       0.91858   0.23333   0.91824   0.0961430000
C          C       0.91858   0.26668   0.83178   0.0961280000
C          C       0.91451   0.01631   0.58182   0.0952570000
C          C       0.91451   0.48369   0.66819   0.0952770000
C          C       0.74809   0.26668   0.58178   0.0959820000
C          C       0.74809   0.23333   0.66823   0.0960530000
H          H       0.77038   0.00127   0.93478   0.1067390000
H          H       0.77038   0.49874   0.81524   0.1065650000
H          H       0.93680   0.25082   0.93485   0.1065210000
H          H       0.93680   0.24919   0.81517   0.1062800000
H          H       0.89629   0.49874   0.56523   0.1066720000
H          H       0.89629   0.00127   0.68478   0.1066990000
H          H       0.72987   0.24918   0.56516   0.1064560000
H          H       0.72987   0.25082   0.68484   0.1065030000
C          C       0.91734   0.49471   0.91336   0.0951930000
C          C       0.91734   0.00529   0.83665   0.0949470000
C          C       0.75052   0.24521   0.91304   0.0976070000
C          C       0.75052   0.25479   0.83697   0.0976150000
C          C       0.74933   0.00529   0.58665   0.0949980000
C          C       0.74933   0.49471   0.66336   0.0949200000
C          C       0.91615   0.25479   0.58697   0.0975430000
C          C       0.91615   0.24521   0.66304   0.0975070000
H          H       0.90004   0.02152   0.92459   0.0933040000
H          H       0.90004   0.47848   0.82542   0.0930990000
H          H       0.73328   0.27220   0.92412   0.0926780000
H          H       0.73328   0.22780   0.82588   0.0925110000
H          H       0.76663   0.47849   0.57542   0.0931570000
H          H       0.76663   0.02151   0.67458   0.0932770000
H          H       0.93338   0.22781   0.57588   0.0925550000
H          H       0.93338   0.27220   0.67412   0.0926480000
C          C       0.95809   0.42504   0.88467  -0.1694680000
C          C       0.95809   0.07496   0.86534  -0.1694810000
C          C       0.79113   0.17509   0.88475  -0.1699370000
C          C       0.79113   0.32491   0.86525  -0.1698880000
C          C       0.70857   0.07496   0.61533  -0.1693840000
C          C       0.70857   0.42504   0.63467  -0.1695140000
C          C       0.87554   0.32490   0.61525  -0.1699290000
C          C       0.87554   0.17510   0.63476  -0.1699370000
H          H       0.97271   0.39640   0.87312   0.1444010000
H          H       0.97271   0.10360   0.87689   0.1445880000
H          H       0.80572   0.14631   0.87338   0.1446790000
H          H       0.80572   0.35369   0.87664   0.1448310000
H          H       0.69395   0.10360   0.62689   0.1444830000
H          H       0.69395   0.39640   0.62311   0.1444370000
H          H       0.86095   0.35369   0.62663   0.1447680000
H          H       0.86095   0.14631   0.62337   0.1447310000
C          C       0.91742   0.42634   0.88555   0.0905450000
C          C       0.91742   0.07367   0.86446   0.0907900000
C          C       0.75046   0.17652   0.88562   0.0916980000
C          C       0.75046   0.32349   0.86439   0.0919900000
C          C       0.74925   0.07367   0.61446   0.0906570000
C          C       0.74925   0.42634   0.63555   0.0907040000
C          C       0.91621   0.32349   0.61438   0.0918930000
C          C       0.91621   0.17652   0.63562   0.0918600000
H          H       0.89985   0.39960   0.87458   0.0944990000
H          H       0.89985   0.10040   0.87543   0.0946580000
H          H       0.73283   0.14971   0.87482   0.0946920000
H          H       0.73283   0.35029   0.87518   0.0949020000
H          H       0.76681   0.10040   0.62542   0.0946260000
H          H       0.76681   0.39960   0.62459   0.0945610000
H          H       0.93384   0.35029   0.62518   0.0948080000
H          H       0.93384   0.14971   0.62482   0.0947330000
C          C       0.95805   0.49614   0.91331  -0.1834990000
C          C       0.95805   0.00385   0.83670  -0.1835480000
C          C       0.79123   0.24651   0.91300  -0.1853590000
C          C       0.79123   0.25350   0.83701  -0.1855240000
C          C       0.70862   0.00386   0.58669  -0.1834620000
C          C       0.70862   0.49615   0.66331  -0.1834630000
C          C       0.87543   0.25350   0.58701  -0.1853640000
C          C       0.87543   0.24651   0.66300  -0.1853410000
H          H       0.97295   0.02500   0.92424   0.1158330000
H          H       0.97295   0.47501   0.82577   0.1156160000
H          H       0.80622   0.27541   0.92376   0.1163100000
H          H       0.80622   0.22459   0.82625   0.1161150000
H          H       0.69372   0.47501   0.57576   0.1156810000
H          H       0.69372   0.02500   0.67424   0.1157460000
H          H       0.86045   0.22460   0.57625   0.1161670000
H          H       0.86045   0.27541   0.67375   0.1162240000
C          C       0.71150   0.48535   0.91948  -0.1783160000
C          C       0.71150   0.01465   0.83053  -0.1783830000
C          C       0.87792   0.23519   0.91946  -0.1782440000
C          C       0.87792   0.26481   0.83055  -0.1783190000
C          C       0.95517   0.01465   0.58053  -0.1782640000
C          C       0.95517   0.48535   0.66948  -0.1782410000
C          C       0.78875   0.26481   0.58055  -0.1782200000
C          C       0.78875   0.23520   0.66946  -0.1782810000
H          H       0.69738   0.00462   0.93761   0.1266120000
H          H       0.69738   0.49539   0.81241   0.1263420000
H          H       0.86379   0.25451   0.93756   0.1268010000
H          H       0.86379   0.24549   0.81245   0.1266530000
H          H       0.96929   0.49539   0.56240   0.1263780000
H          H       0.96929   0.00462   0.68760   0.1264280000
H          H       0.80288   0.24549   0.56244   0.1267020000
H          H       0.80288   0.25451   0.68756   0.1267770000
C          C       0.70978   0.43681   0.87525  -0.1737440000
C          C       0.70978   0.06320   0.87476  -0.1735560000
C          C       0.87620   0.18667   0.87522  -0.1739060000
C          C       0.87620   0.31334   0.87479  -0.1735190000
C          C       0.95688   0.06319   0.62475  -0.1735410000
C          C       0.95688   0.43681   0.62525  -0.1735930000
C          C       0.79047   0.31334   0.62478  -0.1736840000
C          C       0.79047   0.18666   0.62522  -0.1737850000
H          H       0.69438   0.41717   0.85777   0.1402180000
H          H       0.69438   0.08283   0.89224   0.1402870000
H          H       0.86078   0.16708   0.85772   0.1399170000
H          H       0.86078   0.33293   0.89228   0.1400130000
H          H       0.97229   0.08284   0.64224   0.1402260000
H          H       0.97229   0.41717   0.60776   0.1402020000
H          H       0.80589   0.33292   0.64228   0.1399990000
H          H       0.80589   0.16708   0.60772   0.1399900000
C          C       0.75054   0.43727   0.87551   0.0950360000
C          C       0.75054   0.06274   0.87450   0.0951650000
C          C       0.91696   0.18694   0.87555   0.0969180000
C          C       0.91696   0.31305   0.87446   0.0969830000
C          C       0.91612   0.06274   0.62450   0.0949930000
C          C       0.91612   0.43726   0.62551   0.0949680000
C          C       0.74971   0.31306   0.62447   0.0969970000
C          C       0.74971   0.18695   0.62554   0.0970210000
H          H       0.76742   0.41869   0.85850   0.0998660000
H          H       0.76742   0.08131   0.89151   0.0999770000
H          H       0.93383   0.16834   0.85854   0.0993560000
H          H       0.93383   0.33166   0.89148   0.0994560000
H          H       0.89924   0.08131   0.64151   0.0999620000
H          H       0.89924   0.41869   0.60850   0.0999410000
H          H       0.73284   0.33166   0.64147   0.0994410000
H          H       0.73284   0.16834   0.60853   0.0993670000
Zn         Zn      0.16771   0.95708   0.89887   0.8153940000
Zn         Zn      0.16771   0.54293   0.85115   0.8152910000
Zn         Zn      0.00091   0.70718   0.89888   0.8142320000
Zn         Zn      0.00091   0.79283   0.85113   0.8142810000
Zn         Zn      0.16562   0.54293   0.60114   0.8153250000
Zn         Zn      0.16562   0.95707   0.64886   0.8153790000
Zn         Zn     -0.00091   0.79283   0.60113   0.8142490000
Zn         Zn     -0.00091   0.70717   0.64888   0.8142500000
C          C       0.17715   0.92867   0.78953  -0.1423600000
C          C       0.17715   0.57134   0.96049  -0.1423620000
C          C       0.00996   0.67884   0.78952  -0.1417550000
C          C       0.00996   0.82117   0.96049  -0.1415620000
C          C       0.15619   0.57134   0.71048  -0.1424500000
C          C       0.15619   0.92866   0.53952  -0.1423610000
C          C       0.32337   0.82117   0.71049  -0.1417150000
C          C       0.32337   0.67884   0.53951  -0.1417710000
H          H       0.16674   0.96171   0.79277   0.1275950000
H          H       0.16674   0.53830   0.95725   0.1273670000
H          H      -0.00056   0.71183   0.79271   0.1271060000
H          H      -0.00056   0.78818   0.95730   0.1267680000
H          H       0.16659   0.53830   0.70724   0.1274660000
H          H       0.16659   0.96171   0.54276   0.1275790000
H          H       0.00056   0.78817   0.70730   0.1269110000
H          H       0.00056   0.71183   0.54270   0.1270240000
C          C       0.17774   0.92303   0.73942  -0.1369080000
C          C       0.17774   0.57697   0.51058  -0.1371720000
C          C       0.01081   0.67313   0.73941  -0.1374400000
C          C       0.01081   0.82688   0.51060  -0.1376290000
C          C       0.15559   0.57697   0.76059  -0.1371260000
C          C       0.15559   0.92304   0.98942  -0.1369520000
C          C       0.32252   0.82688   0.76060  -0.1375820000
C          C       0.32252   0.67313   0.98941  -0.1374600000
H          H       0.16654   0.95569   0.74237   0.1224670000
H          H       0.16654   0.54431   0.50762   0.1224160000
H          H      -0.00041   0.70576   0.74230   0.1221690000
H          H      -0.00041   0.79424   0.50770   0.1221310000
H          H       0.16679   0.54431   0.75763   0.1223180000
H          H       0.16679   0.95570   0.99238   0.1226090000
H          H       0.00041   0.79424   0.75770   0.1220190000
H          H       0.00041   0.70577   0.99231   0.1222290000
C          C       0.17274   0.93583   0.84000   0.5686380000
C          C       0.17274   0.56417   0.91001   0.5690990000
C          C       0.00533   0.68594   0.84000   0.5687200000
C          C       0.00533   0.81407   0.91002   0.5689590000
C          C       0.16059   0.56418   0.66001   0.5691160000
C          C       0.16059   0.93583   0.58999   0.5688950000
C          C       0.32800   0.81407   0.66001   0.5689690000
C          C       0.32800   0.68594   0.58999   0.5686750000
C          C       0.18256   0.91022   0.81191  -0.0543350000
C          C       0.18256   0.58979   0.93810  -0.0545420000
C          C       0.01536   0.66044   0.81193  -0.0532220000
C          C       0.01536   0.83956   0.93808  -0.0534070000
C          C       0.15077   0.58979   0.68809  -0.0544970000
C          C       0.15077   0.91021   0.56190  -0.0544280000
C          C       0.31797   0.83957   0.68808  -0.0533200000
C          C       0.31797   0.66044   0.56192  -0.0532320000
C          C       0.18487   0.90509   0.76253   0.0665730000
C          C       0.18487   0.59491   0.98747   0.0665280000
C          C       0.01787   0.65525   0.76255   0.0664940000
C          C       0.01787   0.84476   0.98746   0.0663780000
C          C       0.14846   0.59491   0.73747   0.0667010000
C          C       0.14846   0.90509   0.51253   0.0664400000
C          C       0.31547   0.84475   0.73745   0.0665160000
C          C       0.31547   0.65525   0.51255   0.0663770000
C          C       0.18397   0.89919   0.71309  -0.0320490000
C          C       0.18397   0.60081   0.53692  -0.0319010000
C          C       0.01715   0.64924   0.71310  -0.0300160000
C          C       0.01715   0.85076   0.53691  -0.0299920000
C          C       0.14937   0.60082   0.78692  -0.0319730000
C          C       0.14937   0.89919   0.96309  -0.0321430000
C          C       0.31619   0.85076   0.78691  -0.0302190000
C          C       0.31619   0.64924   0.96310  -0.0299590000
C          C       0.19969   0.86197   0.75850   0.0808540000
C          C       0.19969   0.63803   0.99150   0.0808910000
C          C       0.03277   0.61217   0.75858   0.0812490000
C          C       0.03277   0.88783   0.99143   0.0813810000
C          C       0.13364   0.63803   0.74150   0.0807050000
C          C       0.13364   0.86198   0.50850   0.0809440000
C          C       0.30056   0.88783   0.74143   0.0812130000
C          C       0.30056   0.61217   0.50857   0.0814240000
C          C       0.20602   0.84432   0.78190  -0.1411150000
C          C       0.20602   0.65568   0.96811  -0.1408720000
C          C       0.03909   0.59459   0.78199  -0.1406740000
C          C       0.03909   0.90542   0.96802  -0.1403410000
C          C       0.12731   0.65568   0.71811  -0.1409140000
C          C       0.12731   0.84433   0.53189  -0.1410570000
C          C       0.29424   0.90541   0.71801  -0.1405370000
C          C       0.29424   0.59459   0.53199  -0.1407000000
H          H       0.21796   0.81199   0.77901   0.1074870000
H          H       0.21796   0.68802   0.97101   0.1076730000
H          H       0.05110   0.56229   0.77914   0.1072280000
H          H       0.05110   0.93771   0.97086   0.1074150000
H          H       0.11537   0.68802   0.72101   0.1075680000
H          H       0.11537   0.81199   0.52900   0.1075370000
H          H       0.28223   0.93771   0.72086   0.1074120000
H          H       0.28223   0.56229   0.52914   0.1073830000
C          C       0.19724   0.86759   0.80790  -0.0986090000
C          C       0.19724   0.63242   0.94211  -0.0985570000
C          C       0.03020   0.61789   0.80797  -0.0997200000
C          C       0.03020   0.88212   0.94204  -0.0999150000
C          C       0.13610   0.63241   0.69210  -0.0984810000
C          C       0.13610   0.86759   0.55790  -0.0985740000
C          C       0.30313   0.88211   0.69204  -0.0998760000
C          C       0.30313   0.61789   0.55797  -0.0998000000
H          H       0.20155   0.85389   0.82576   0.1000360000
H          H       0.20155   0.64611   0.92425   0.1001530000
H          H       0.03451   0.60427   0.82586   0.1001990000
H          H       0.03451   0.89574   0.92415   0.1003530000
H          H       0.13179   0.64611   0.67424   0.1000870000
H          H       0.13179   0.85390   0.57576   0.1000700000
H          H       0.29883   0.89574   0.67415   0.1003030000
H          H       0.29883   0.60427   0.57586   0.1002610000
C          C       0.19933   0.85687   0.70921  -0.1052310000
C          C       0.19933   0.64313   0.54079  -0.1052620000
C          C       0.03253   0.60694   0.70927  -0.1057620000
C          C       0.03253   0.89307   0.54073  -0.1058300000
C          C       0.13400   0.64314   0.79079  -0.1051780000
C          C       0.13400   0.85687   0.95921  -0.1053220000
C          C       0.30080   0.89307   0.79073  -0.1056390000
C          C       0.30080   0.60694   0.95927  -0.1058510000
H          H       0.20513   0.83979   0.68823   0.1011850000
H          H       0.20513   0.66020   0.56177   0.1012310000
H          H       0.03837   0.58981   0.68831   0.1013560000
H          H       0.03837   0.91020   0.56169   0.1014110000
H          H       0.12821   0.66021   0.81178   0.1012920000
H          H       0.12821   0.83980   0.93824   0.1011870000
H          H       0.29497   0.91019   0.81169   0.1014150000
H          H       0.29497   0.58981   0.93831   0.1013170000
C          C       0.20736   0.83882   0.73126  -0.1459360000
C          C       0.20736   0.66118   0.51875  -0.1457060000
C          C       0.04052   0.58896   0.73135  -0.1459620000
C          C       0.04052   0.91104   0.51865  -0.1458020000
C          C       0.12597   0.66118   0.76875  -0.1457480000
C          C       0.12597   0.83882   0.98127  -0.1458190000
C          C       0.29282   0.91104   0.76865  -0.1458000000
C          C       0.29282   0.58897   0.98136  -0.1458570000
H          H       0.21976   0.80665   0.72813   0.1093330000
H          H       0.21976   0.69335   0.52188   0.1093910000
H          H       0.05296   0.55682   0.72827   0.1092970000
H          H       0.05296   0.94318   0.52173   0.1093620000
H          H       0.11357   0.69335   0.77188   0.1094510000
H          H       0.11357   0.80666   0.97813   0.1092590000
H          H       0.28037   0.94319   0.77173   0.1094460000
H          H       0.28037   0.55682   0.97828   0.1091700000
O          O       0.16455   0.97524   0.84273  -0.5815670000
O          O       0.16455   0.52477   0.90728  -0.5821350000
O          O       0.32945   0.72511   0.84272  -0.5824170000
O          O       0.32945   0.77490   0.90729  -0.5828480000
O          O       0.16879   0.52477   0.65728  -0.5820730000
O          O       0.16879   0.97523   0.59272  -0.5818690000
O          O       0.00389   0.77490   0.65729  -0.5827510000
O          O       0.00389   0.72510   0.59272  -0.5825140000
O          O       0.17063   0.95811   0.69187  -0.5660910000
O          O       0.17063   0.54189   0.55813  -0.5662250000
O          O       0.00394   0.70814   0.69185  -0.5653290000
O          O       0.00394   0.79186   0.55815  -0.5655100000
O          O       0.16270   0.54189   0.80813  -0.5663520000
O          O       0.16270   0.95812   0.94187  -0.5659620000
O          O       0.32939   0.79187   0.80815  -0.5656980000
O          O       0.32939   0.70814   0.94185  -0.5651580000
O          O       0.17259   0.91636   0.85987  -0.5476350000
O          O       0.17259   0.58365   0.89014  -0.5474710000
O          O       0.00592   0.66650   0.85989  -0.5477180000
O          O       0.00592   0.83351   0.89012  -0.5474570000
O          O       0.16074   0.58365   0.64013  -0.5475730000
O          O       0.16074   0.91635   0.60988  -0.5475760000
O          O       0.32741   0.83350   0.64012  -0.5475280000
O          O       0.32741   0.66650   0.60989  -0.5475150000
O          O       0.17077   0.89177   0.66531  -0.5673820000
O          O       0.17077   0.60823   0.58469  -0.5672950000
O          O       0.00406   0.64177   0.66531  -0.5666660000
O          O       0.00406   0.85823   0.58470  -0.5666330000
O          O       0.16256   0.60823   0.83469  -0.5671160000
O          O       0.16256   0.89178   0.91531  -0.5675230000
O          O       0.32927   0.85824   0.83470  -0.5665970000
O          O       0.32927   0.64177   0.91530  -0.5668570000
N          N       0.23037   0.96052   0.89945  -0.2148340000
N          N       0.23037   0.53948   0.85056  -0.2147450000
N          N       0.06349   0.71091   0.89933  -0.2186080000
N          N       0.06349   0.78909   0.85067  -0.2189080000
N          N       0.10296   0.53948   0.60056  -0.2147140000
N          N       0.10296   0.96052   0.64944  -0.2146760000
N          N       0.26985   0.78909   0.60067  -0.2187570000
N          N       0.26985   0.71091   0.64933  -0.2186960000
N          N       0.10495   0.95988   0.89661  -0.2111570000
N          N       0.10495   0.54013   0.85340  -0.2112120000
N          N       0.27136   0.70944   0.89668  -0.2110920000
N          N       0.27136   0.79057   0.85333  -0.2110820000
N          N       0.22839   0.54013   0.60340  -0.2111170000
N          N       0.22839   0.95988   0.64660  -0.2111170000
N          N       0.06197   0.79056   0.60333  -0.2111160000
N          N       0.06197   0.70944   0.64667  -0.2111490000
C          C       0.31272   0.96088   0.89863   0.0989600000
C          C       0.31272   0.53913   0.85139   0.0989950000
C          C       0.14582   0.71100   0.89853   0.1016920000
C          C       0.14582   0.78901   0.85149   0.1017600000
C          C       0.02061   0.53913   0.60138   0.0988510000
C          C       0.02061   0.96087   0.64863   0.0989460000
C          C       0.18751   0.78900   0.60148   0.1017200000
C          C       0.18751   0.71100   0.64853   0.1017090000
C          C       0.02265   0.96121   0.89777   0.1038340000
C          C       0.02265   0.53879   0.85225   0.1038390000
C          C       0.18908   0.71117   0.89770   0.1023370000
C          C       0.18908   0.78884   0.85231   0.1021850000
C          C       0.31069   0.53879   0.60225   0.1038810000
C          C       0.31069   0.96122   0.64776   0.1038270000
C          C       0.14426   0.78884   0.60230   0.1022210000
C          C       0.14426   0.71117   0.64770   0.1022600000
C          C       0.17445   0.91726   0.68867   0.5500680000
C          C       0.17445   0.58275   0.56134   0.5500520000
C          C       0.00772   0.66727   0.68866   0.5484730000
C          C       0.00772   0.83273   0.56135   0.5486250000
C          C       0.15888   0.58275   0.81134   0.5500170000
C          C       0.15888   0.91726   0.93867   0.5501520000
C          C       0.32562   0.83273   0.81135   0.5488270000
C          C       0.32562   0.66727   0.93866   0.5485130000
C          C       0.08549   0.98369   0.91819   0.0952770000
C          C       0.08549   0.51631   0.83182   0.0953520000
C          C       0.25191   0.73333   0.91824   0.0961430000
C          C       0.25191   0.76667   0.83178   0.0961280000
C          C       0.24784   0.51631   0.58182   0.0952570000
C          C       0.24784   0.98369   0.66819   0.0952770000
C          C       0.08142   0.76668   0.58178   0.0959820000
C          C       0.08142   0.73333   0.66823   0.0960530000
H          H       0.10371   0.50127   0.93478   0.1067390000
H          H       0.10371   0.99874   0.81524   0.1065650000
H          H       0.27013   0.75082   0.93485   0.1065210000
H          H       0.27013   0.74919   0.81517   0.1062800000
H          H       0.22962   0.99874   0.56523   0.1066720000
H          H       0.22962   0.50127   0.68478   0.1066990000
H          H       0.06320   0.74918   0.56516   0.1064560000
H          H       0.06320   0.75082   0.68484   0.1065030000
C          C       0.25067   0.99471   0.91336   0.0951930000
C          C       0.25067   0.50530   0.83665   0.0949470000
C          C       0.08385   0.74521   0.91304   0.0976070000
C          C       0.08385   0.75479   0.83697   0.0976150000
C          C       0.08266   0.50530   0.58665   0.0949980000
C          C       0.08266   0.99471   0.66336   0.0949200000
C          C       0.24948   0.75480   0.58697   0.0975430000
C          C       0.24948   0.74521   0.66304   0.0975070000
H          H       0.23337   0.52152   0.92459   0.0933040000
H          H       0.23337   0.97849   0.82542   0.0930990000
H          H       0.06662   0.77220   0.92412   0.0926780000
H          H       0.06662   0.72781   0.82588   0.0925110000
H          H       0.09996   0.97849   0.57542   0.0931570000
H          H       0.09996   0.52152   0.67458   0.0932770000
H          H       0.26672   0.72780   0.57588   0.0925550000
H          H       0.26672   0.77220   0.67412   0.0926480000
C          C       0.29143   0.92504   0.88467  -0.1694680000
C          C       0.29143   0.57496   0.86534  -0.1694810000
C          C       0.12446   0.67510   0.88475  -0.1699370000
C          C       0.12446   0.82491   0.86525  -0.1698880000
C          C       0.04191   0.57496   0.61533  -0.1693840000
C          C       0.04191   0.92504   0.63467  -0.1695140000
C          C       0.20887   0.82491   0.61525  -0.1699290000
C          C       0.20887   0.67510   0.63476  -0.1699370000
H          H       0.30605   0.89640   0.87312   0.1444010000
H          H       0.30605   0.60360   0.87689   0.1445880000
H          H       0.13905   0.64631   0.87338   0.1446790000
H          H       0.13905   0.85369   0.87664   0.1448310000
H          H       0.02729   0.60360   0.62689   0.1444830000
H          H       0.02729   0.89640   0.62311   0.1444370000
H          H       0.19428   0.85369   0.62663   0.1447680000
H          H       0.19428   0.64631   0.62337   0.1447310000
C          C       0.25075   0.92634   0.88555   0.0905450000
C          C       0.25075   0.57367   0.86446   0.0907900000
C          C       0.08379   0.67652   0.88562   0.0916980000
C          C       0.08379   0.82349   0.86439   0.0919900000
C          C       0.08258   0.57367   0.61446   0.0906570000
C          C       0.08258   0.92634   0.63555   0.0907040000
C          C       0.24954   0.82349   0.61438   0.0918930000
C          C       0.24954   0.67651   0.63562   0.0918600000
H          H       0.23319   0.89960   0.87458   0.0944990000
H          H       0.23319   0.60041   0.87543   0.0946580000
H          H       0.06616   0.64972   0.87482   0.0946920000
H          H       0.06616   0.85029   0.87518   0.0949020000
H          H       0.10015   0.60041   0.62542   0.0946260000
H          H       0.10015   0.89960   0.62459   0.0945610000
H          H       0.26717   0.85029   0.62518   0.0948080000
H          H       0.26717   0.64971   0.62482   0.0947330000
C          C       0.29138   0.99614   0.91331  -0.1834990000
C          C       0.29138   0.50386   0.83670  -0.1835480000
C          C       0.12457   0.74651   0.91300  -0.1853590000
C          C       0.12457   0.75350   0.83701  -0.1855240000
C          C       0.04195   0.50386   0.58669  -0.1834620000
C          C       0.04195   0.99615   0.66331  -0.1834630000
C          C       0.20877   0.75350   0.58701  -0.1853640000
C          C       0.20877   0.74650   0.66300  -0.1853410000
H          H       0.30628   0.52500   0.92424   0.1158330000
H          H       0.30628   0.97501   0.82577   0.1156160000
H          H       0.13955   0.77541   0.92376   0.1163100000
H          H       0.13955   0.72459   0.82625   0.1161150000
H          H       0.02705   0.97501   0.57576   0.1156810000
H          H       0.02705   0.52500   0.67424   0.1157460000
H          H       0.19378   0.72459   0.57625   0.1161670000
H          H       0.19378   0.77541   0.67375   0.1162240000
C          C       0.04483   0.98535   0.91948  -0.1783160000
C          C       0.04483   0.51465   0.83053  -0.1783830000
C          C       0.21125   0.73520   0.91946  -0.1782440000
C          C       0.21125   0.76481   0.83055  -0.1783190000
C          C       0.28850   0.51465   0.58053  -0.1782640000
C          C       0.28850   0.98535   0.66948  -0.1782410000
C          C       0.12208   0.76481   0.58055  -0.1782200000
C          C       0.12208   0.73520   0.66946  -0.1782810000
H          H       0.03071   0.50462   0.93761   0.1266120000
H          H       0.03071   0.99538   0.81241   0.1263420000
H          H       0.19712   0.75452   0.93756   0.1268010000
H          H       0.19712   0.74549   0.81245   0.1266530000
H          H       0.30262   0.99539   0.56240   0.1263780000
H          H       0.30262   0.50462   0.68760   0.1264280000
H          H       0.13621   0.74548   0.56244   0.1267020000
H          H       0.13621   0.75452   0.68756   0.1267770000
C          C       0.04312   0.93681   0.87525  -0.1737440000
C          C       0.04312   0.56320   0.87476  -0.1735560000
C          C       0.20953   0.68667   0.87522  -0.1739060000
C          C       0.20953   0.81334   0.87479  -0.1735190000
C          C       0.29022   0.56320   0.62475  -0.1735410000
C          C       0.29022   0.93681   0.62525  -0.1735930000
C          C       0.12380   0.81334   0.62478  -0.1736840000
C          C       0.12380   0.68666   0.62522  -0.1737850000
H          H       0.02771   0.91717   0.85777   0.1402180000
H          H       0.02771   0.58283   0.89224   0.1402870000
H          H       0.19411   0.66708   0.85772   0.1399170000
H          H       0.19411   0.83293   0.89228   0.1400130000
H          H       0.30562   0.58284   0.64224   0.1402260000
H          H       0.30562   0.91717   0.60776   0.1402020000
H          H       0.13922   0.83292   0.64228   0.1399990000
H          H       0.13922   0.66708   0.60772   0.1399900000
C          C       0.08388   0.93727   0.87551   0.0950360000
C          C       0.08388   0.56274   0.87450   0.0951650000
C          C       0.25029   0.68695   0.87555   0.0969180000
C          C       0.25029   0.81306   0.87446   0.0969830000
C          C       0.24946   0.56274   0.62450   0.0949930000
C          C       0.24946   0.93726   0.62551   0.0949680000
C          C       0.08304   0.81306   0.62447   0.0969970000
C          C       0.08304   0.68695   0.62554   0.0970210000
H          H       0.10076   0.91869   0.85850   0.0998660000
H          H       0.10076   0.58132   0.89151   0.0999770000
H          H       0.26716   0.66834   0.85854   0.0993560000
H          H       0.26716   0.83167   0.89148   0.0994560000
H          H       0.23258   0.58132   0.64151   0.0999620000
H          H       0.23258   0.91869   0.60850   0.0999410000
H          H       0.06617   0.83166   0.64147   0.0994410000
H          H       0.06617   0.66834   0.60853   0.0993670000
Zn         Zn      0.50105   0.95708   0.89887   0.8153940000
Zn         Zn      0.50105   0.54293   0.85115   0.8152910000
Zn         Zn      0.33424   0.70718   0.89888   0.8142320000
Zn         Zn      0.33424   0.79283   0.85113   0.8142810000
Zn         Zn      0.49895   0.54293   0.60114   0.8153250000
Zn         Zn      0.49895   0.95707   0.64886   0.8153790000
Zn         Zn      0.33242   0.79283   0.60113   0.8142490000
Zn         Zn      0.33242   0.70717   0.64888   0.8142500000
C          C       0.51048   0.92867   0.78953  -0.1423600000
C          C       0.51048   0.57134   0.96049  -0.1423620000
C          C       0.34330   0.67884   0.78952  -0.1417550000
C          C       0.34330   0.82117   0.96049  -0.1415620000
C          C       0.48952   0.57134   0.71048  -0.1424500000
C          C       0.48952   0.92866   0.53952  -0.1423610000
C          C       0.65670   0.82117   0.71049  -0.1417150000
C          C       0.65670   0.67884   0.53951  -0.1417710000
H          H       0.50007   0.96171   0.79277   0.1275950000
H          H       0.50007   0.53830   0.95725   0.1273670000
H          H       0.33277   0.71183   0.79271   0.1271060000
H          H       0.33277   0.78818   0.95730   0.1267680000
H          H       0.49993   0.53830   0.70724   0.1274660000
H          H       0.49993   0.96171   0.54276   0.1275790000
H          H       0.33389   0.78817   0.70730   0.1269110000
H          H       0.33389   0.71183   0.54270   0.1270240000
C          C       0.51107   0.92303   0.73942  -0.1369080000
C          C       0.51107   0.57697   0.51058  -0.1371720000
C          C       0.34415   0.67313   0.73941  -0.1374400000
C          C       0.34415   0.82688   0.51060  -0.1376290000
C          C       0.48893   0.57697   0.76059  -0.1371260000
C          C       0.48893   0.92304   0.98942  -0.1369520000
C          C       0.65585   0.82688   0.76060  -0.1375820000
C          C       0.65585   0.67313   0.98941  -0.1374600000
H          H       0.49988   0.95569   0.74237   0.1224670000
H          H       0.49988   0.54431   0.50762   0.1224160000
H          H       0.33292   0.70576   0.74230   0.1221690000
H          H       0.33292   0.79424   0.50770   0.1221310000
H          H       0.50012   0.54431   0.75763   0.1223180000
H          H       0.50012   0.95570   0.99238   0.1226090000
H          H       0.33374   0.79424   0.75770   0.1220190000
H          H       0.33374   0.70577   0.99231   0.1222290000
C          C       0.50607   0.93583   0.84000   0.5686380000
C          C       0.50608   0.56417   0.91001   0.5690990000
C          C       0.33866   0.68594   0.84000   0.5687200000
C          C       0.33866   0.81407   0.91002   0.5689590000
C          C       0.49393   0.56418   0.66001   0.5691160000
C          C       0.49392   0.93583   0.58999   0.5688950000
C          C       0.66134   0.81407   0.66001   0.5689690000
C          C       0.66134   0.68594   0.58999   0.5686750000
C          C       0.51590   0.91022   0.81191  -0.0543350000
C          C       0.51590   0.58979   0.93810  -0.0545420000
C          C       0.34870   0.66044   0.81193  -0.0532220000
C          C       0.34869   0.83956   0.93808  -0.0534070000
C          C       0.48410   0.58979   0.68809  -0.0544970000
C          C       0.48411   0.91021   0.56190  -0.0544280000
C          C       0.65131   0.83957   0.68808  -0.0533200000
C          C       0.65131   0.66044   0.56192  -0.0532320000
C          C       0.51820   0.90509   0.76253   0.0665730000
C          C       0.51820   0.59491   0.98747   0.0665280000
C          C       0.35120   0.65525   0.76255   0.0664940000
C          C       0.35120   0.84476   0.98746   0.0663780000
C          C       0.48180   0.59491   0.73747   0.0667010000
C          C       0.48180   0.90509   0.51253   0.0664400000
C          C       0.64880   0.84475   0.73745   0.0665160000
C          C       0.64880   0.65525   0.51255   0.0663770000
C          C       0.51730   0.89919   0.71309  -0.0320490000
C          C       0.51730   0.60081   0.53692  -0.0319010000
C          C       0.35048   0.64924   0.71310  -0.0300160000
C          C       0.35048   0.85076   0.53691  -0.0299920000
C          C       0.48270   0.60082   0.78692  -0.0319730000
C          C       0.48270   0.89919   0.96309  -0.0321430000
C          C       0.64952   0.85076   0.78691  -0.0302190000
C          C       0.64952   0.64924   0.96310  -0.0299590000
C          C       0.53303   0.86197   0.75850   0.0808540000
C          C       0.53303   0.63803   0.99150   0.0808910000
C          C       0.36611   0.61217   0.75858   0.0812490000
C          C       0.36611   0.88783   0.99143   0.0813810000
C          C       0.46697   0.63803   0.74150   0.0807050000
C          C       0.46697   0.86198   0.50850   0.0809440000
C          C       0.63389   0.88783   0.74143   0.0812130000
C          C       0.63389   0.61217   0.50857   0.0814240000
C          C       0.53936   0.84432   0.78190  -0.1411150000
C          C       0.53936   0.65568   0.96811  -0.1408720000
C          C       0.37242   0.59459   0.78199  -0.1406740000
C          C       0.37242   0.90542   0.96802  -0.1403410000
C          C       0.46064   0.65568   0.71811  -0.1409140000
C          C       0.46064   0.84433   0.53189  -0.1410570000
C          C       0.62758   0.90541   0.71801  -0.1405370000
C          C       0.62758   0.59459   0.53199  -0.1407000000
H          H       0.55130   0.81199   0.77901   0.1074870000
H          H       0.55130   0.68802   0.97101   0.1076730000
H          H       0.38443   0.56229   0.77914   0.1072280000
H          H       0.38443   0.93771   0.97086   0.1074150000
H          H       0.44870   0.68802   0.72101   0.1075680000
H          H       0.44870   0.81199   0.52900   0.1075370000
H          H       0.61557   0.93771   0.72086   0.1074120000
H          H       0.61557   0.56229   0.52914   0.1073830000
C          C       0.53057   0.86759   0.80790  -0.0986090000
C          C       0.53057   0.63242   0.94211  -0.0985570000
C          C       0.36354   0.61789   0.80797  -0.0997200000
C          C       0.36354   0.88212   0.94204  -0.0999150000
C          C       0.46943   0.63241   0.69210  -0.0984810000
C          C       0.46943   0.86759   0.55790  -0.0985740000
C          C       0.63646   0.88211   0.69204  -0.0998760000
C          C       0.63646   0.61789   0.55797  -0.0998000000
H          H       0.53488   0.85389   0.82576   0.1000360000
H          H       0.53488   0.64611   0.92425   0.1001530000
H          H       0.36784   0.60427   0.82586   0.1001990000
H          H       0.36784   0.89574   0.92415   0.1003530000
H          H       0.46512   0.64611   0.67424   0.1000870000
H          H       0.46512   0.85390   0.57576   0.1000700000
H          H       0.63216   0.89574   0.67415   0.1003030000
H          H       0.63216   0.60427   0.57586   0.1002610000
C          C       0.53267   0.85687   0.70921  -0.1052310000
C          C       0.53267   0.64313   0.54079  -0.1052620000
C          C       0.36587   0.60694   0.70927  -0.1057620000
C          C       0.36587   0.89307   0.54073  -0.1058300000
C          C       0.46733   0.64314   0.79079  -0.1051780000
C          C       0.46733   0.85687   0.95921  -0.1053220000
C          C       0.63413   0.89307   0.79073  -0.1056390000
C          C       0.63413   0.60694   0.95927  -0.1058510000
H          H       0.53846   0.83979   0.68823   0.1011850000
H          H       0.53846   0.66020   0.56177   0.1012310000
H          H       0.37170   0.58981   0.68831   0.1013560000
H          H       0.37170   0.91020   0.56169   0.1014110000
H          H       0.46154   0.66021   0.81178   0.1012920000
H          H       0.46154   0.83980   0.93824   0.1011870000
H          H       0.62830   0.91019   0.81169   0.1014150000
H          H       0.62830   0.58981   0.93831   0.1013170000
C          C       0.54069   0.83882   0.73126  -0.1459360000
C          C       0.54069   0.66118   0.51875  -0.1457060000
C          C       0.37385   0.58896   0.73135  -0.1459620000
C          C       0.37385   0.91104   0.51865  -0.1458020000
C          C       0.45931   0.66118   0.76875  -0.1457480000
C          C       0.45931   0.83882   0.98127  -0.1458190000
C          C       0.62615   0.91104   0.76865  -0.1458000000
C          C       0.62615   0.58897   0.98136  -0.1458570000
H          H       0.55310   0.80665   0.72813   0.1093330000
H          H       0.55310   0.69335   0.52188   0.1093910000
H          H       0.38630   0.55682   0.72827   0.1092970000
H          H       0.38630   0.94318   0.52173   0.1093620000
H          H       0.44690   0.69335   0.77188   0.1094510000
H          H       0.44690   0.80666   0.97813   0.1092590000
H          H       0.61370   0.94319   0.77173   0.1094460000
H          H       0.61370   0.55682   0.97828   0.1091700000
O          O       0.49788   0.97524   0.84273  -0.5815670000
O          O       0.49788   0.52477   0.90728  -0.5821350000
O          O       0.66278   0.72511   0.84272  -0.5824170000
O          O       0.66278   0.77490   0.90729  -0.5828480000
O          O       0.50212   0.52477   0.65728  -0.5820730000
O          O       0.50212   0.97523   0.59272  -0.5818690000
O          O       0.33722   0.77490   0.65729  -0.5827510000
O          O       0.33722   0.72510   0.59272  -0.5825140000
O          O       0.50396   0.95811   0.69187  -0.5660910000
O          O       0.50396   0.54189   0.55813  -0.5662250000
O          O       0.33727   0.70814   0.69185  -0.5653290000
O          O       0.33727   0.79186   0.55815  -0.5655100000
O          O       0.49603   0.54189   0.80813  -0.5663520000
O          O       0.49603   0.95812   0.94187  -0.5659620000
O          O       0.66273   0.79187   0.80815  -0.5656980000
O          O       0.66273   0.70814   0.94185  -0.5651580000
O          O       0.50593   0.91636   0.85987  -0.5476350000
O          O       0.50592   0.58365   0.89014  -0.5474710000
O          O       0.33926   0.66650   0.85989  -0.5477180000
O          O       0.33925   0.83351   0.89012  -0.5474570000
O          O       0.49408   0.58365   0.64013  -0.5475730000
O          O       0.49408   0.91635   0.60988  -0.5475760000
O          O       0.66075   0.83350   0.64012  -0.5475280000
O          O       0.66075   0.66650   0.60989  -0.5475150000
O          O       0.50410   0.89177   0.66531  -0.5673820000
O          O       0.50410   0.60823   0.58469  -0.5672950000
O          O       0.33739   0.64177   0.66531  -0.5666660000
O          O       0.33739   0.85823   0.58470  -0.5666330000
O          O       0.49590   0.60823   0.83469  -0.5671160000
O          O       0.49590   0.89178   0.91531  -0.5675230000
O          O       0.66261   0.85824   0.83470  -0.5665970000
O          O       0.66261   0.64177   0.91530  -0.5668570000
N          N       0.56370   0.96052   0.89945  -0.2148340000
N          N       0.56370   0.53948   0.85056  -0.2147450000
N          N       0.39682   0.71091   0.89933  -0.2186080000
N          N       0.39682   0.78909   0.85067  -0.2189080000
N          N       0.43630   0.53948   0.60056  -0.2147140000
N          N       0.43630   0.96052   0.64944  -0.2146760000
N          N       0.60318   0.78909   0.60067  -0.2187570000
N          N       0.60318   0.71091   0.64933  -0.2186960000
N          N       0.43828   0.95988   0.89661  -0.2111570000
N          N       0.43828   0.54013   0.85340  -0.2112120000
N          N       0.60469   0.70944   0.89668  -0.2110920000
N          N       0.60469   0.79057   0.85333  -0.2110820000
N          N       0.56172   0.54013   0.60340  -0.2111170000
N          N       0.56172   0.95988   0.64660  -0.2111170000
N          N       0.39531   0.79056   0.60333  -0.2111160000
N          N       0.39531   0.70944   0.64667  -0.2111490000
C          C       0.64606   0.96088   0.89863   0.0989600000
C          C       0.64606   0.53913   0.85139   0.0989950000
C          C       0.47916   0.71100   0.89853   0.1016920000
C          C       0.47916   0.78901   0.85149   0.1017600000
C          C       0.35394   0.53913   0.60138   0.0988510000
C          C       0.35394   0.96087   0.64863   0.0989460000
C          C       0.52085   0.78900   0.60148   0.1017200000
C          C       0.52085   0.71100   0.64853   0.1017090000
C          C       0.35598   0.96121   0.89777   0.1038340000
C          C       0.35598   0.53879   0.85225   0.1038390000
C          C       0.52241   0.71117   0.89770   0.1023370000
C          C       0.52241   0.78884   0.85231   0.1021850000
C          C       0.64402   0.53879   0.60225   0.1038810000
C          C       0.64402   0.96122   0.64776   0.1038270000
C          C       0.47759   0.78884   0.60230   0.1022210000
C          C       0.47759   0.71117   0.64770   0.1022600000
C          C       0.50779   0.91726   0.68867   0.5500680000
C          C       0.50779   0.58275   0.56134   0.5500520000
C          C       0.34105   0.66727   0.68866   0.5484730000
C          C       0.34105   0.83273   0.56135   0.5486250000
C          C       0.49222   0.58275   0.81134   0.5500170000
C          C       0.49222   0.91726   0.93867   0.5501520000
C          C       0.65895   0.83273   0.81135   0.5488270000
C          C       0.65895   0.66727   0.93866   0.5485130000
C          C       0.41882   0.98369   0.91819   0.0952770000
C          C       0.41882   0.51631   0.83182   0.0953520000
C          C       0.58524   0.73333   0.91824   0.0961430000
C          C       0.58524   0.76667   0.83178   0.0961280000
C          C       0.58118   0.51631   0.58182   0.0952570000
C          C       0.58118   0.98369   0.66819   0.0952770000
C          C       0.41476   0.76668   0.58178   0.0959820000
C          C       0.41476   0.73333   0.66823   0.0960530000
H          H       0.43705   0.50127   0.93478   0.1067390000
H          H       0.43705   0.99874   0.81524   0.1065650000
H          H       0.60347   0.75082   0.93485   0.1065210000
H          H       0.60347   0.74919   0.81517   0.1062800000
H          H       0.56295   0.99874   0.56523   0.1066720000
H          H       0.56295   0.50127   0.68478   0.1066990000
H          H       0.39653   0.74918   0.56516   0.1064560000
H          H       0.39653   0.75082   0.68484   0.1065030000
C          C       0.58400   0.99471   0.91336   0.0951930000
C          C       0.58400   0.50530   0.83665   0.0949470000
C          C       0.41718   0.74521   0.91304   0.0976070000
C          C       0.41718   0.75479   0.83697   0.0976150000
C          C       0.41600   0.50530   0.58665   0.0949980000
C          C       0.41600   0.99471   0.66336   0.0949200000
C          C       0.58282   0.75480   0.58697   0.0975430000
C          C       0.58282   0.74521   0.66304   0.0975070000
H          H       0.56670   0.52152   0.92459   0.0933040000
H          H       0.56670   0.97849   0.82542   0.0930990000
H          H       0.39995   0.77220   0.92412   0.0926780000
H          H       0.39995   0.72781   0.82588   0.0925110000
H          H       0.43330   0.97849   0.57542   0.0931570000
H          H       0.43330   0.52152   0.67458   0.0932770000
H          H       0.60005   0.72780   0.57588   0.0925550000
H          H       0.60005   0.77220   0.67412   0.0926480000
C          C       0.62476   0.92504   0.88467  -0.1694680000
C          C       0.62476   0.57496   0.86534  -0.1694810000
C          C       0.45779   0.67510   0.88475  -0.1699370000
C          C       0.45779   0.82491   0.86525  -0.1698880000
C          C       0.37524   0.57496   0.61533  -0.1693840000
C          C       0.37524   0.92504   0.63467  -0.1695140000
C          C       0.54221   0.82491   0.61525  -0.1699290000
C          C       0.54221   0.67510   0.63476  -0.1699370000
H          H       0.63938   0.89640   0.87312   0.1444010000
H          H       0.63938   0.60360   0.87689   0.1445880000
H          H       0.47239   0.64631   0.87338   0.1446790000
H          H       0.47239   0.85369   0.87664   0.1448310000
H          H       0.36062   0.60360   0.62689   0.1444830000
H          H       0.36062   0.89640   0.62311   0.1444370000
H          H       0.52761   0.85369   0.62663   0.1447680000
H          H       0.52761   0.64631   0.62337   0.1447310000
C          C       0.58408   0.92634   0.88555   0.0905450000
C          C       0.58408   0.57367   0.86446   0.0907900000
C          C       0.41713   0.67652   0.88562   0.0916980000
C          C       0.41713   0.82349   0.86439   0.0919900000
C          C       0.41592   0.57367   0.61446   0.0906570000
C          C       0.41592   0.92634   0.63555   0.0907040000
C          C       0.58288   0.82349   0.61438   0.0918930000
C          C       0.58288   0.67651   0.63562   0.0918600000
H          H       0.56652   0.89960   0.87458   0.0944990000
H          H       0.56652   0.60041   0.87543   0.0946580000
H          H       0.39950   0.64972   0.87482   0.0946920000
H          H       0.39950   0.85029   0.87518   0.0949020000
H          H       0.43348   0.60041   0.62542   0.0946260000
H          H       0.43348   0.89960   0.62459   0.0945610000
H          H       0.60050   0.85029   0.62518   0.0948080000
H          H       0.60050   0.64971   0.62482   0.0947330000
C          C       0.62472   0.99614   0.91331  -0.1834990000
C          C       0.62472   0.50386   0.83670  -0.1835480000
C          C       0.45790   0.74651   0.91300  -0.1853590000
C          C       0.45790   0.75350   0.83701  -0.1855240000
C          C       0.37528   0.50386   0.58669  -0.1834620000
C          C       0.37528   0.99615   0.66331  -0.1834630000
C          C       0.54210   0.75350   0.58701  -0.1853640000
C          C       0.54210   0.74650   0.66300  -0.1853410000
H          H       0.63961   0.52500   0.92424   0.1158330000
H          H       0.63961   0.97501   0.82577   0.1156160000
H          H       0.47288   0.77541   0.92376   0.1163100000
H          H       0.47288   0.72459   0.82625   0.1161150000
H          H       0.36039   0.97501   0.57576   0.1156810000
H          H       0.36039   0.52500   0.67424   0.1157460000
H          H       0.52712   0.72459   0.57625   0.1161670000
H          H       0.52712   0.77541   0.67375   0.1162240000
C          C       0.37816   0.98535   0.91948  -0.1783160000
C          C       0.37816   0.51465   0.83053  -0.1783830000
C          C       0.54459   0.73520   0.91946  -0.1782440000
C          C       0.54459   0.76481   0.83055  -0.1783190000
C          C       0.62184   0.51465   0.58053  -0.1782640000
C          C       0.62184   0.98535   0.66948  -0.1782410000
C          C       0.45542   0.76481   0.58055  -0.1782200000
C          C       0.45541   0.73520   0.66946  -0.1782810000
H          H       0.36405   0.50462   0.93761   0.1266120000
H          H       0.36405   0.99538   0.81241   0.1263420000
H          H       0.53046   0.75452   0.93756   0.1268010000
H          H       0.53046   0.74549   0.81245   0.1266530000
H          H       0.63595   0.99539   0.56240   0.1263780000
H          H       0.63595   0.50462   0.68760   0.1264280000
H          H       0.46954   0.74548   0.56244   0.1267020000
H          H       0.46954   0.75452   0.68756   0.1267770000
C          C       0.37645   0.93681   0.87525  -0.1737440000
C          C       0.37645   0.56320   0.87476  -0.1735560000
C          C       0.54286   0.68667   0.87522  -0.1739060000
C          C       0.54286   0.81334   0.87479  -0.1735190000
C          C       0.62355   0.56320   0.62475  -0.1735410000
C          C       0.62355   0.93681   0.62525  -0.1735930000
C          C       0.45714   0.81334   0.62478  -0.1736840000
C          C       0.45714   0.68666   0.62522  -0.1737850000
H          H       0.36105   0.91717   0.85777   0.1402180000
H          H       0.36105   0.58283   0.89224   0.1402870000
H          H       0.52745   0.66708   0.85772   0.1399170000
H          H       0.52745   0.83293   0.89228   0.1400130000
H          H       0.63896   0.58284   0.64224   0.1402260000
H          H       0.63896   0.91717   0.60776   0.1402020000
H          H       0.47255   0.83292   0.64228   0.1399990000
H          H       0.47255   0.66708   0.60772   0.1399900000
C          C       0.41721   0.93727   0.87551   0.0950360000
C          C       0.41721   0.56274   0.87450   0.0951650000
C          C       0.58362   0.68695   0.87555   0.0969180000
C          C       0.58362   0.81306   0.87446   0.0969830000
C          C       0.58279   0.56274   0.62450   0.0949930000
C          C       0.58279   0.93726   0.62551   0.0949680000
C          C       0.41638   0.81306   0.62447   0.0969970000
C          C       0.41638   0.68695   0.62554   0.0970210000
H          H       0.43409   0.91869   0.85850   0.0998660000
H          H       0.43409   0.58132   0.89151   0.0999770000
H          H       0.60049   0.66834   0.85854   0.0993560000
H          H       0.60049   0.83167   0.89148   0.0994560000
H          H       0.56591   0.58132   0.64151   0.0999620000
H          H       0.56591   0.91869   0.60850   0.0999410000
H          H       0.39951   0.83166   0.64147   0.0994410000
H          H       0.39951   0.66834   0.60853   0.0993670000
Zn         Zn      0.83438   0.95708   0.89887   0.8153940000
Zn         Zn      0.83438   0.54293   0.85115   0.8152910000
Zn         Zn      0.66758   0.70718   0.89888   0.8142320000
Zn         Zn      0.66758   0.79283   0.85113   0.8142810000
Zn         Zn      0.83229   0.54293   0.60114   0.8153250000
Zn         Zn      0.83229   0.95707   0.64886   0.8153790000
Zn         Zn      0.66576   0.79283   0.60113   0.8142490000
Zn         Zn      0.66576   0.70717   0.64888   0.8142500000
C          C       0.84381   0.92867   0.78953  -0.1423600000
C          C       0.84382   0.57134   0.96049  -0.1423620000
C          C       0.67663   0.67884   0.78952  -0.1417550000
C          C       0.67663   0.82117   0.96049  -0.1415620000
C          C       0.82285   0.57134   0.71048  -0.1424500000
C          C       0.82285   0.92866   0.53952  -0.1423610000
C          C       0.99004   0.82117   0.71049  -0.1417150000
C          C       0.99004   0.67884   0.53951  -0.1417710000
H          H       0.83341   0.96171   0.79277   0.1275950000
H          H       0.83341   0.53830   0.95725   0.1273670000
H          H       0.66611   0.71183   0.79271   0.1271060000
H          H       0.66611   0.78818   0.95730   0.1267680000
H          H       0.83326   0.53830   0.70724   0.1274660000
H          H       0.83326   0.96171   0.54276   0.1275790000
H          H       0.66723   0.78817   0.70730   0.1269110000
H          H       0.66723   0.71183   0.54270   0.1270240000
C          C       0.84441   0.92303   0.73942  -0.1369080000
C          C       0.84441   0.57697   0.51058  -0.1371720000
C          C       0.67748   0.67313   0.73941  -0.1374400000
C          C       0.67748   0.82688   0.51060  -0.1376290000
C          C       0.82226   0.57697   0.76059  -0.1371260000
C          C       0.82226   0.92304   0.98942  -0.1369520000
C          C       0.98919   0.82688   0.76060  -0.1375820000
C          C       0.98919   0.67313   0.98941  -0.1374600000
H          H       0.83321   0.95569   0.74237   0.1224670000
H          H       0.83321   0.54431   0.50762   0.1224160000
H          H       0.66626   0.70576   0.74230   0.1221690000
H          H       0.66626   0.79424   0.50770   0.1221310000
H          H       0.83346   0.54431   0.75763   0.1223180000
H          H       0.83346   0.95570   0.99238   0.1226090000
H          H       0.66708   0.79424   0.75770   0.1220190000
H          H       0.66708   0.70577   0.99231   0.1222290000
C          C       0.83941   0.93583   0.84000   0.5686380000
C          C       0.83941   0.56417   0.91001   0.5690990000
C          C       0.67199   0.68594   0.84000   0.5687200000
C          C       0.67200   0.81407   0.91002   0.5689590000
C          C       0.82726   0.56418   0.66001   0.5691160000
C          C       0.82726   0.93583   0.58999   0.5688950000
C          C       0.99467   0.81407   0.66001   0.5689690000
C          C       0.99467   0.68594   0.58999   0.5686750000
C          C       0.84923   0.91022   0.81191  -0.0543350000
C          C       0.84923   0.58979   0.93810  -0.0545420000
C          C       0.68203   0.66044   0.81193  -0.0532220000
C          C       0.68203   0.83956   0.93808  -0.0534070000
C          C       0.81744   0.58979   0.68809  -0.0544970000
C          C       0.81744   0.91021   0.56190  -0.0544280000
C          C       0.98464   0.83957   0.68808  -0.0533200000
C          C       0.98464   0.66044   0.56192  -0.0532320000
C          C       0.85154   0.90509   0.76253   0.0665730000
C          C       0.85154   0.59491   0.98747   0.0665280000
C          C       0.68453   0.65525   0.76255   0.0664940000
C          C       0.68453   0.84476   0.98746   0.0663780000
C          C       0.81513   0.59491   0.73747   0.0667010000
C          C       0.81513   0.90509   0.51253   0.0664400000
C          C       0.98213   0.84475   0.73745   0.0665160000
C          C       0.98213   0.65525   0.51255   0.0663770000
C          C       0.85063   0.89919   0.71309  -0.0320490000
C          C       0.85063   0.60081   0.53692  -0.0319010000
C          C       0.68381   0.64924   0.71310  -0.0300160000
C          C       0.68381   0.85076   0.53691  -0.0299920000
C          C       0.81603   0.60082   0.78692  -0.0319730000
C          C       0.81603   0.89919   0.96309  -0.0321430000
C          C       0.98285   0.85076   0.78691  -0.0302190000
C          C       0.98285   0.64924   0.96310  -0.0299590000
C          C       0.86636   0.86197   0.75850   0.0808540000
C          C       0.86636   0.63803   0.99150   0.0808910000
C          C       0.69944   0.61217   0.75858   0.0812490000
C          C       0.69944   0.88783   0.99143   0.0813810000
C          C       0.80031   0.63803   0.74150   0.0807050000
C          C       0.80031   0.86198   0.50850   0.0809440000
C          C       0.96723   0.88783   0.74143   0.0812130000
C          C       0.96723   0.61217   0.50857   0.0814240000
C          C       0.87269   0.84432   0.78190  -0.1411150000
C          C       0.87269   0.65568   0.96811  -0.1408720000
C          C       0.70576   0.59459   0.78199  -0.1406740000
C          C       0.70576   0.90542   0.96802  -0.1403410000
C          C       0.79398   0.65568   0.71811  -0.1409140000
C          C       0.79398   0.84433   0.53189  -0.1410570000
C          C       0.96091   0.90541   0.71801  -0.1405370000
C          C       0.96091   0.59459   0.53199  -0.1407000000
H          H       0.88463   0.81199   0.77901   0.1074870000
H          H       0.88463   0.68802   0.97101   0.1076730000
H          H       0.71777   0.56229   0.77914   0.1072280000
H          H       0.71777   0.93771   0.97086   0.1074150000
H          H       0.78204   0.68802   0.72101   0.1075680000
H          H       0.78204   0.81199   0.52900   0.1075370000
H          H       0.94890   0.93771   0.72086   0.1074120000
H          H       0.94890   0.56229   0.52914   0.1073830000
C          C       0.86390   0.86759   0.80790  -0.0986090000
C          C       0.86390   0.63242   0.94211  -0.0985570000
C          C       0.69687   0.61789   0.80797  -0.0997200000
C          C       0.69687   0.88212   0.94204  -0.0999150000
C          C       0.80276   0.63241   0.69210  -0.0984810000
C          C       0.80276   0.86759   0.55790  -0.0985740000
C          C       0.96980   0.88211   0.69204  -0.0998760000
C          C       0.96980   0.61789   0.55797  -0.0998000000
H          H       0.86821   0.85389   0.82576   0.1000360000
H          H       0.86821   0.64611   0.92425   0.1001530000
H          H       0.70117   0.60427   0.82586   0.1001990000
H          H       0.70117   0.89574   0.92415   0.1003530000
H          H       0.79845   0.64611   0.67424   0.1000870000
H          H       0.79845   0.85390   0.57576   0.1000700000
H          H       0.96549   0.89574   0.67415   0.1003030000
H          H       0.96549   0.60427   0.57586   0.1002610000
C          C       0.86600   0.85687   0.70921  -0.1052310000
C          C       0.86600   0.64313   0.54079  -0.1052620000
C          C       0.69920   0.60694   0.70927  -0.1057620000
C          C       0.69920   0.89307   0.54073  -0.1058300000
C          C       0.80067   0.64314   0.79079  -0.1051780000
C          C       0.80067   0.85687   0.95921  -0.1053220000
C          C       0.96747   0.89307   0.79073  -0.1056390000
C          C       0.96747   0.60694   0.95927  -0.1058510000
H          H       0.87179   0.83979   0.68823   0.1011850000
H          H       0.87179   0.66020   0.56177   0.1012310000
H          H       0.70503   0.58981   0.68831   0.1013560000
H          H       0.70503   0.91020   0.56169   0.1014110000
H          H       0.79487   0.66021   0.81178   0.1012920000
H          H       0.79487   0.83980   0.93824   0.1011870000
H          H       0.96163   0.91019   0.81169   0.1014150000
H          H       0.96163   0.58981   0.93831   0.1013170000
C          C       0.87403   0.83882   0.73126  -0.1459360000
C          C       0.87403   0.66118   0.51875  -0.1457060000
C          C       0.70718   0.58896   0.73135  -0.1459620000
C          C       0.70718   0.91104   0.51865  -0.1458020000
C          C       0.79264   0.66118   0.76875  -0.1457480000
C          C       0.79264   0.83882   0.98127  -0.1458190000
C          C       0.95948   0.91104   0.76865  -0.1458000000
C          C       0.95948   0.58897   0.98136  -0.1458570000
H          H       0.88643   0.80665   0.72813   0.1093330000
H          H       0.88643   0.69335   0.52188   0.1093910000
H          H       0.71963   0.55682   0.72827   0.1092970000
H          H       0.71963   0.94318   0.52173   0.1093620000
H          H       0.78024   0.69335   0.77188   0.1094510000
H          H       0.78024   0.80666   0.97813   0.1092590000
H          H       0.94704   0.94319   0.77173   0.1094460000
H          H       0.94704   0.55682   0.97828   0.1091700000
O          O       0.83121   0.97524   0.84273  -0.5815670000
O          O       0.83121   0.52477   0.90728  -0.5821350000
O          O       0.99611   0.72511   0.84272  -0.5824170000
O          O       0.99611   0.77490   0.90729  -0.5828480000
O          O       0.83545   0.52477   0.65728  -0.5820730000
O          O       0.83545   0.97523   0.59272  -0.5818690000
O          O       0.67056   0.77490   0.65729  -0.5827510000
O          O       0.67056   0.72510   0.59272  -0.5825140000
O          O       0.83730   0.95811   0.69187  -0.5660910000
O          O       0.83730   0.54189   0.55813  -0.5662250000
O          O       0.67061   0.70814   0.69185  -0.5653290000
O          O       0.67061   0.79186   0.55815  -0.5655100000
O          O       0.82937   0.54189   0.80813  -0.5663520000
O          O       0.82937   0.95812   0.94187  -0.5659620000
O          O       0.99606   0.79187   0.80815  -0.5656980000
O          O       0.99606   0.70814   0.94185  -0.5651580000
O          O       0.83926   0.91636   0.85987  -0.5476350000
O          O       0.83926   0.58365   0.89014  -0.5474710000
O          O       0.67259   0.66650   0.85989  -0.5477180000
O          O       0.67259   0.83351   0.89012  -0.5474570000
O          O       0.82741   0.58365   0.64013  -0.5475730000
O          O       0.82741   0.91635   0.60988  -0.5475760000
O          O       0.99408   0.83350   0.64012  -0.5475280000
O          O       0.99408   0.66650   0.60989  -0.5475150000
O          O       0.83744   0.89177   0.66531  -0.5673820000
O          O       0.83744   0.60823   0.58469  -0.5672950000
O          O       0.67073   0.64177   0.66531  -0.5666660000
O          O       0.67073   0.85823   0.58470  -0.5666330000
O          O       0.82923   0.60823   0.83469  -0.5671160000
O          O       0.82923   0.89178   0.91531  -0.5675230000
O          O       0.99594   0.85824   0.83470  -0.5665970000
O          O       0.99594   0.64177   0.91530  -0.5668570000
N          N       0.89704   0.96052   0.89945  -0.2148340000
N          N       0.89704   0.53948   0.85056  -0.2147450000
N          N       0.73015   0.71091   0.89933  -0.2186080000
N          N       0.73015   0.78909   0.85067  -0.2189080000
N          N       0.76963   0.53948   0.60056  -0.2147140000
N          N       0.76963   0.96052   0.64944  -0.2146760000
N          N       0.93651   0.78909   0.60067  -0.2187570000
N          N       0.93651   0.71091   0.64933  -0.2186960000
N          N       0.77161   0.95988   0.89661  -0.2111570000
N          N       0.77161   0.54013   0.85340  -0.2112120000
N          N       0.93803   0.70944   0.89668  -0.2110920000
N          N       0.93803   0.79057   0.85333  -0.2110820000
N          N       0.89505   0.54013   0.60340  -0.2111170000
N          N       0.89505   0.95988   0.64660  -0.2111170000
N          N       0.72864   0.79056   0.60333  -0.2111160000
N          N       0.72864   0.70944   0.64667  -0.2111490000
C          C       0.97939   0.96088   0.89863   0.0989600000
C          C       0.97939   0.53913   0.85139   0.0989950000
C          C       0.81249   0.71100   0.89853   0.1016920000
C          C       0.81249   0.78901   0.85149   0.1017600000
C          C       0.68728   0.53913   0.60138   0.0988510000
C          C       0.68728   0.96087   0.64863   0.0989460000
C          C       0.85418   0.78900   0.60148   0.1017200000
C          C       0.85418   0.71100   0.64853   0.1017090000
C          C       0.68931   0.96121   0.89777   0.1038340000
C          C       0.68931   0.53879   0.85225   0.1038390000
C          C       0.85574   0.71117   0.89770   0.1023370000
C          C       0.85574   0.78884   0.85231   0.1021850000
C          C       0.97735   0.53879   0.60225   0.1038810000
C          C       0.97735   0.96122   0.64776   0.1038270000
C          C       0.81092   0.78884   0.60230   0.1022210000
C          C       0.81092   0.71117   0.64770   0.1022600000
C          C       0.84112   0.91726   0.68867   0.5500680000
C          C       0.84112   0.58275   0.56134   0.5500520000
C          C       0.67439   0.66727   0.68866   0.5484730000
C          C       0.67438   0.83273   0.56135   0.5486250000
C          C       0.82555   0.58275   0.81134   0.5500170000
C          C       0.82555   0.91726   0.93867   0.5501520000
C          C       0.99228   0.83273   0.81135   0.5488270000
C          C       0.99228   0.66727   0.93866   0.5485130000
C          C       0.75216   0.98369   0.91819   0.0952770000
C          C       0.75216   0.51631   0.83182   0.0953520000
C          C       0.91858   0.73333   0.91824   0.0961430000
C          C       0.91858   0.76667   0.83178   0.0961280000
C          C       0.91451   0.51631   0.58182   0.0952570000
C          C       0.91451   0.98369   0.66819   0.0952770000
C          C       0.74809   0.76668   0.58178   0.0959820000
C          C       0.74809   0.73333   0.66823   0.0960530000
H          H       0.77038   0.50127   0.93478   0.1067390000
H          H       0.77038   0.99874   0.81524   0.1065650000
H          H       0.93680   0.75082   0.93485   0.1065210000
H          H       0.93680   0.74919   0.81517   0.1062800000
H          H       0.89629   0.99874   0.56523   0.1066720000
H          H       0.89629   0.50127   0.68478   0.1066990000
H          H       0.72987   0.74918   0.56516   0.1064560000
H          H       0.72987   0.75082   0.68484   0.1065030000
C          C       0.91734   0.99471   0.91336   0.0951930000
C          C       0.91734   0.50530   0.83665   0.0949470000
C          C       0.75052   0.74521   0.91304   0.0976070000
C          C       0.75052   0.75479   0.83697   0.0976150000
C          C       0.74933   0.50530   0.58665   0.0949980000
C          C       0.74933   0.99471   0.66336   0.0949200000
C          C       0.91615   0.75480   0.58697   0.0975430000
C          C       0.91615   0.74521   0.66304   0.0975070000
H          H       0.90004   0.52152   0.92459   0.0933040000
H          H       0.90004   0.97849   0.82542   0.0930990000
H          H       0.73328   0.77220   0.92412   0.0926780000
H          H       0.73328   0.72781   0.82588   0.0925110000
H          H       0.76663   0.97849   0.57542   0.0931570000
H          H       0.76663   0.52152   0.67458   0.0932770000
H          H       0.93338   0.72780   0.57588   0.0925550000
H          H       0.93338   0.77220   0.67412   0.0926480000
C          C       0.95809   0.92504   0.88467  -0.1694680000
C          C       0.95809   0.57496   0.86534  -0.1694810000
C          C       0.79113   0.67510   0.88475  -0.1699370000
C          C       0.79113   0.82491   0.86525  -0.1698880000
C          C       0.70857   0.57496   0.61533  -0.1693840000
C          C       0.70857   0.92504   0.63467  -0.1695140000
C          C       0.87554   0.82491   0.61525  -0.1699290000
C          C       0.87554   0.67510   0.63476  -0.1699370000
H          H       0.97271   0.89640   0.87312   0.1444010000
H          H       0.97271   0.60360   0.87689   0.1445880000
H          H       0.80572   0.64631   0.87338   0.1446790000
H          H       0.80572   0.85369   0.87664   0.1448310000
H          H       0.69395   0.60360   0.62689   0.1444830000
H          H       0.69395   0.89640   0.62311   0.1444370000
H          H       0.86095   0.85369   0.62663   0.1447680000
H          H       0.86095   0.64631   0.62337   0.1447310000
C          C       0.91742   0.92634   0.88555   0.0905450000
C          C       0.91742   0.57367   0.86446   0.0907900000
C          C       0.75046   0.67652   0.88562   0.0916980000
C          C       0.75046   0.82349   0.86439   0.0919900000
C          C       0.74925   0.57367   0.61446   0.0906570000
C          C       0.74925   0.92634   0.63555   0.0907040000
C          C       0.91621   0.82349   0.61438   0.0918930000
C          C       0.91621   0.67651   0.63562   0.0918600000
H          H       0.89985   0.89960   0.87458   0.0944990000
H          H       0.89985   0.60041   0.87543   0.0946580000
H          H       0.73283   0.64972   0.87482   0.0946920000
H          H       0.73283   0.85029   0.87518   0.0949020000
H          H       0.76681   0.60041   0.62542   0.0946260000
H          H       0.76681   0.89960   0.62459   0.0945610000
H          H       0.93384   0.85029   0.62518   0.0948080000
H          H       0.93384   0.64971   0.62482   0.0947330000
C          C       0.95805   0.99614   0.91331  -0.1834990000
C          C       0.95805   0.50386   0.83670  -0.1835480000
C          C       0.79123   0.74651   0.91300  -0.1853590000
C          C       0.79123   0.75350   0.83701  -0.1855240000
C          C       0.70862   0.50386   0.58669  -0.1834620000
C          C       0.70862   0.99615   0.66331  -0.1834630000
C          C       0.87543   0.75350   0.58701  -0.1853640000
C          C       0.87543   0.74650   0.66300  -0.1853410000
H          H       0.97295   0.52500   0.92424   0.1158330000
H          H       0.97295   0.97501   0.82577   0.1156160000
H          H       0.80622   0.77541   0.92376   0.1163100000
H          H       0.80622   0.72459   0.82625   0.1161150000
H          H       0.69372   0.97501   0.57576   0.1156810000
H          H       0.69372   0.52500   0.67424   0.1157460000
H          H       0.86045   0.72459   0.57625   0.1161670000
H          H       0.86045   0.77541   0.67375   0.1162240000
C          C       0.71150   0.98535   0.91948  -0.1783160000
C          C       0.71150   0.51465   0.83053  -0.1783830000
C          C       0.87792   0.73520   0.91946  -0.1782440000
C          C       0.87792   0.76481   0.83055  -0.1783190000
C          C       0.95517   0.51465   0.58053  -0.1782640000
C          C       0.95517   0.98535   0.66948  -0.1782410000
C          C       0.78875   0.76481   0.58055  -0.1782200000
C          C       0.78875   0.73520   0.66946  -0.1782810000
H          H       0.69738   0.50462   0.93761   0.1266120000
H          H       0.69738   0.99538   0.81241   0.1263420000
H          H       0.86379   0.75452   0.93756   0.1268010000
H          H       0.86379   0.74549   0.81245   0.1266530000
H          H       0.96929   0.99539   0.56240   0.1263780000
H          H       0.96929   0.50462   0.68760   0.1264280000
H          H       0.80288   0.74548   0.56244   0.1267020000
H          H       0.80288   0.75452   0.68756   0.1267770000
C          C       0.70978   0.93681   0.87525  -0.1737440000
C          C       0.70978   0.56320   0.87476  -0.1735560000
C          C       0.87620   0.68667   0.87522  -0.1739060000
C          C       0.87620   0.81334   0.87479  -0.1735190000
C          C       0.95688   0.56320   0.62475  -0.1735410000
C          C       0.95688   0.93681   0.62525  -0.1735930000
C          C       0.79047   0.81334   0.62478  -0.1736840000
C          C       0.79047   0.68666   0.62522  -0.1737850000
H          H       0.69438   0.91717   0.85777   0.1402180000
H          H       0.69438   0.58283   0.89224   0.1402870000
H          H       0.86078   0.66708   0.85772   0.1399170000
H          H       0.86078   0.83293   0.89228   0.1400130000
H          H       0.97229   0.58284   0.64224   0.1402260000
H          H       0.97229   0.91717   0.60776   0.1402020000
H          H       0.80589   0.83292   0.64228   0.1399990000
H          H       0.80589   0.66708   0.60772   0.1399900000
C          C       0.75054   0.93727   0.87551   0.0950360000
C          C       0.75054   0.56274   0.87450   0.0951650000
C          C       0.91696   0.68695   0.87555   0.0969180000
C          C       0.91696   0.81306   0.87446   0.0969830000
C          C       0.91612   0.56274   0.62450   0.0949930000
C          C       0.91612   0.93726   0.62551   0.0949680000
C          C       0.74971   0.81306   0.62447   0.0969970000
C          C       0.74971   0.68695   0.62554   0.0970210000
H          H       0.76742   0.91869   0.85850   0.0998660000
H          H       0.76742   0.58132   0.89151   0.0999770000
H          H       0.93383   0.66834   0.85854   0.0993560000
H          H       0.93383   0.83167   0.89148   0.0994560000
H          H       0.89924   0.58132   0.64151   0.0999620000
H          H       0.89924   0.91869   0.60850   0.0999410000
H          H       0.73284   0.83166   0.64147   0.0994410000
H          H       0.73284   0.66834   0.60853   0.0993670000
