data_crystal
 
_cell_length_a    30.23200
_cell_length_b    30.23200
_cell_length_c    36.79200
_cell_angle_alpha 90.01200
_cell_angle_beta  89.98700
_cell_angle_gamma 120.04500
 
_symmetry_space_group_name_Hall 'P 1'
_symmetry_space_group_name_H-M  'P 1'
 
loop_
_symmetry_equiv_pos_as_xyz
 'x,y,z' 
 
loop_
_atom_site_label
_atom_site_type_symbol
_atom_site_fract_x
_atom_site_fract_y
_atom_site_fract_z
_atom_site_charge
B          B       0.02680   0.05348   0.04152   0.7119490000
O          O       0.19313   0.38642   0.04234  -0.5690780000
C          C       0.11030   0.22079   0.04202  -0.2426750000
B          B       0.44651   0.47319   0.04152   0.7119830000
O          O       0.11358   0.30686   0.04233  -0.5692330000
C          C       0.27920   0.38969   0.04202  -0.2426670000
B          B       0.02675   0.47324   0.04094   0.7111280000
O          O       0.19310   0.30689   0.04232  -0.5689190000
C          C       0.11033   0.38965   0.04207  -0.2424530000
B          B       0.47321   0.44651   0.12512   0.7117670000
O          O       0.30686   0.11357   0.12521  -0.5689490000
C          C       0.38969   0.27920   0.12508  -0.2423910000
B          B       0.05348   0.02678   0.12511   0.7117450000
O          O       0.38641   0.19312   0.12521  -0.5689900000
C          C       0.22078   0.11029   0.12508  -0.2423290000
B          B       0.47324   0.02674   0.12512   0.7126890000
O          O       0.30689   0.19310   0.12521  -0.5692960000
C          C       0.38965   0.11034   0.12509  -0.2430230000
B          B       0.21996   0.36009   0.04225   0.7182210000
B          B       0.13994   0.36006   0.04230   0.7194760000
B          B       0.13990   0.28003   0.04225   0.7182850000
B          B       0.28003   0.13990   0.12518   0.7183300000
B          B       0.36005   0.13994   0.12518   0.7193470000
B          B       0.36008   0.21996   0.12518   0.7183460000
O          O       0.05305   0.02651   0.04077  -0.5697780000
O          O       0.47352   0.02646   0.04222  -0.5700890000
O          O       0.47347   0.44694   0.04077  -0.5697810000
O          O       0.44694   0.47347   0.12517  -0.5707410000
O          O       0.02649   0.47350   0.12514  -0.5700190000
O          O       0.02653   0.05305   0.12517  -0.5706770000
C          C       0.05643   0.19315   0.04191  -0.0645650000
C          C       0.11015   0.14009   0.04167  -0.0520780000
H          H       0.03562   0.21391   0.04194   0.1034110000
H          H       0.13089   0.11928   0.04151   0.1047990000
C          C       0.30665   0.36330   0.04186  -0.0645030000
C          C       0.36009   0.47013   0.04177  -0.0525140000
H          H       0.28571   0.32170   0.04191   0.1030610000
H          H       0.38106   0.01171   0.04169   0.1046660000
C          C       0.13669   0.44353   0.04188  -0.0653510000
C          C       0.02984   0.38989   0.04150  -0.0518310000
H          H       0.17829   0.46428   0.04204   0.1037150000
H          H       0.48826   0.36921   0.04134   0.1052440000
C          C       0.44357   0.30684   0.12503  -0.0650540000
C          C       0.38985   0.35990   0.12500  -0.0521270000
H          H       0.46437   0.28607   0.12503   0.1037000000
H          H       0.36912   0.38072   0.12498   0.1047870000
C          C       0.19333   0.13669   0.12504  -0.0654390000
C          C       0.13991   0.02985   0.12499  -0.0513360000
H          H       0.21427   0.17828   0.12503   0.1038170000
H          H       0.11893   0.48826   0.12497   0.1043240000
C          C       0.36330   0.05646   0.12505  -0.0658510000
C          C       0.47014   0.11009   0.12504  -0.0509170000
H          H       0.32170   0.03571   0.12503   0.1038510000
H          H       0.01173   0.13079   0.12501   0.1044170000
C          C       0.19315   0.05642   0.12503  -0.0650400000
C          C       0.14008   0.11013   0.12500  -0.0521110000
H          H       0.21393   0.03562   0.12503   0.1036320000
H          H       0.11927   0.13086   0.12498   0.1048370000
C          C       0.36330   0.30666   0.12504  -0.0653480000
C          C       0.47014   0.36008   0.12499  -0.0512680000
H          H       0.32170   0.28572   0.12503   0.1037450000
H          H       0.01172   0.38106   0.12497   0.1043410000
C          C       0.44353   0.13669   0.12506  -0.0657610000
C          C       0.38989   0.02984   0.12504  -0.0508840000
H          H       0.46428   0.17830   0.12503   0.1038210000
H          H       0.36920   0.48827   0.12501   0.1044210000
C          C       0.30684   0.44356   0.04191  -0.0645770000
C          C       0.35990   0.38984   0.04167  -0.0520960000
H          H       0.28607   0.46437   0.04195   0.1033760000
H          H       0.38071   0.36911   0.04152   0.1048430000
C          C       0.13669   0.19334   0.04187  -0.0646070000
C          C       0.02985   0.13990   0.04177  -0.0525710000
H          H       0.17829   0.21428   0.04190   0.1032090000
H          H       0.48827   0.11892   0.04169   0.1046420000
C          C       0.05646   0.36330   0.04188  -0.0655020000
C          C       0.11010   0.47015   0.04150  -0.0517780000
H          H       0.03571   0.32170   0.04203   0.1036140000
H          H       0.13079   0.01173   0.04134   0.1052780000
C          C       0.05627   0.44372   0.04128  -0.2322650000
C          C       0.05632   0.11257   0.04166  -0.2307680000
C          C       0.38742   0.44367   0.04166  -0.2308380000
C          C       0.44372   0.05626   0.12506  -0.2313940000
C          C       0.44368   0.38743   0.12501  -0.2317030000
C          C       0.11257   0.05630   0.12501  -0.2316730000
B          B       0.02678   0.05348   0.20822   0.7116230000
O          O       0.19312   0.38641   0.20813  -0.5690630000
C          C       0.11029   0.22078   0.20825  -0.2424980000
B          B       0.44650   0.47321   0.20822   0.7116400000
O          O       0.11358   0.30686   0.20813  -0.5691320000
C          C       0.27920   0.38969   0.20825  -0.2425490000
B          B       0.02674   0.47325   0.20821   0.7128360000
O          O       0.19310   0.30689   0.20812  -0.5692150000
C          C       0.11033   0.38965   0.20824  -0.2429160000
B          B       0.47319   0.44651   0.29181   0.7119130000
O          O       0.30686   0.11357   0.29099  -0.5690320000
C          C       0.38969   0.27920   0.29131  -0.2426060000
B          B       0.05348   0.02679   0.29181   0.7119500000
O          O       0.38641   0.19312   0.29100  -0.5690650000
C          C       0.22078   0.11029   0.29132  -0.2425740000
B          B       0.47324   0.02674   0.29239   0.7109670000
O          O       0.30689   0.19309   0.29101  -0.5689950000
C          C       0.38965   0.11033   0.29127  -0.2423900000
B          B       0.21996   0.36008   0.20816   0.7184820000
B          B       0.13993   0.36005   0.20816   0.7192480000
B          B       0.13990   0.28003   0.20816   0.7184460000
B          B       0.28003   0.13990   0.29108   0.7180950000
B          B       0.36005   0.13994   0.29103   0.7194870000
B          B       0.36008   0.21996   0.29108   0.7181430000
O          O       0.05305   0.02653   0.20816  -0.5706160000
O          O       0.47350   0.02648   0.20819  -0.5700780000
O          O       0.47346   0.44694   0.20816  -0.5705670000
O          O       0.44693   0.47347   0.29256  -0.5697650000
O          O       0.02646   0.47352   0.29111  -0.5699920000
O          O       0.02651   0.05305   0.29256  -0.5698040000
C          C       0.05642   0.19315   0.20830  -0.0650280000
C          C       0.11013   0.14008   0.20833  -0.0520520000
H          H       0.03562   0.21392   0.20830   0.1035360000
H          H       0.13087   0.11927   0.20836   0.1049070000
C          C       0.30665   0.36330   0.20830  -0.0652400000
C          C       0.36008   0.47014   0.20834  -0.0513290000
H          H       0.28572   0.32170   0.20830   0.1038390000
H          H       0.38105   0.01172   0.20836   0.1042160000
C          C       0.13669   0.44353   0.20828  -0.0656940000
C          C       0.02985   0.38989   0.20829  -0.0510000000
H          H       0.17829   0.46428   0.20830   0.1039270000
H          H       0.48826   0.36921   0.20832   0.1043460000
C          C       0.44356   0.30684   0.29142  -0.0644880000
C          C       0.38984   0.35990   0.29167  -0.0521760000
H          H       0.46437   0.28607   0.29139   0.1035310000
H          H       0.36910   0.38070   0.29182   0.1046180000
C          C       0.19334   0.13669   0.29147  -0.0645230000
C          C       0.13990   0.02985   0.29157  -0.0524180000
H          H       0.21427   0.17829   0.29143   0.1030140000
H          H       0.11892   0.48827   0.29164   0.1046720000
C          C       0.36330   0.05646   0.29145  -0.0654360000
C          C       0.47014   0.11010   0.29184  -0.0517380000
H          H       0.32170   0.03571   0.29130   0.1035890000
H          H       0.01173   0.13079   0.29199   0.1053030000
C          C       0.19315   0.05643   0.29142  -0.0645420000
C          C       0.14009   0.11015   0.29167  -0.0521850000
H          H       0.21391   0.03562   0.29139   0.1034870000
H          H       0.11928   0.13088   0.29182   0.1046810000
C          C       0.36329   0.30665   0.29147  -0.0644930000
C          C       0.47013   0.36009   0.29157  -0.0525030000
H          H       0.32169   0.28571   0.29143   0.1030370000
H          H       0.01172   0.38106   0.29164   0.1046750000
C          C       0.44353   0.13669   0.29145  -0.0655540000
C          C       0.38988   0.02984   0.29183  -0.0518040000
H          H       0.46428   0.17829   0.29130   0.1035660000
H          H       0.36920   0.48826   0.29199   0.1053580000
C          C       0.30683   0.44357   0.20830  -0.0650620000
C          C       0.35990   0.38986   0.20833  -0.0520430000
H          H       0.28606   0.46437   0.20830   0.1035410000
H          H       0.38072   0.36912   0.20835   0.1049450000
C          C       0.13668   0.19334   0.20830  -0.0651980000
C          C       0.02985   0.13991   0.20834  -0.0513790000
H          H       0.17829   0.21427   0.20830   0.1038010000
H          H       0.48826   0.11893   0.20836   0.1042410000
C          C       0.05646   0.36329   0.20828  -0.0657150000
C          C       0.11010   0.47014   0.20829  -0.0510540000
H          H       0.03571   0.32169   0.20830   0.1038600000
H          H       0.13079   0.01172   0.20832   0.1043870000
C          C       0.05627   0.44373   0.20827  -0.2314960000
C          C       0.05630   0.11256   0.20833  -0.2316160000
C          C       0.38742   0.44368   0.20833  -0.2316490000
C          C       0.44371   0.05627   0.29205  -0.2321680000
C          C       0.44367   0.38742   0.29167  -0.2307330000
C          C       0.11257   0.05631   0.29167  -0.2307140000
B          B       0.52680   0.05348   0.04152   0.7119490000
O          O       0.69313   0.38642   0.04234  -0.5690780000
C          C       0.61030   0.22079   0.04202  -0.2426750000
B          B       0.94650   0.47319   0.04152   0.7119830000
O          O       0.61358   0.30686   0.04233  -0.5692330000
C          C       0.77920   0.38969   0.04202  -0.2426670000
B          B       0.52675   0.47324   0.04094   0.7111280000
O          O       0.69310   0.30689   0.04232  -0.5689190000
C          C       0.61033   0.38965   0.04207  -0.2424530000
B          B       0.97321   0.44651   0.12512   0.7117670000
O          O       0.80686   0.11357   0.12521  -0.5689490000
C          C       0.88969   0.27920   0.12508  -0.2423910000
B          B       0.55348   0.02678   0.12511   0.7117450000
O          O       0.88641   0.19312   0.12521  -0.5689900000
C          C       0.72078   0.11029   0.12508  -0.2423290000
B          B       0.97324   0.02674   0.12512   0.7126890000
O          O       0.80689   0.19310   0.12521  -0.5692960000
C          C       0.88965   0.11034   0.12509  -0.2430230000
B          B       0.71996   0.36009   0.04225   0.7182210000
B          B       0.63994   0.36006   0.04230   0.7194760000
B          B       0.63990   0.28003   0.04225   0.7182850000
B          B       0.78003   0.13990   0.12518   0.7183300000
B          B       0.86005   0.13994   0.12518   0.7193470000
B          B       0.86009   0.21996   0.12518   0.7183460000
O          O       0.55305   0.02651   0.04077  -0.5697780000
O          O       0.97352   0.02646   0.04222  -0.5700890000
O          O       0.97347   0.44694   0.04077  -0.5697810000
O          O       0.94694   0.47347   0.12517  -0.5707410000
O          O       0.52649   0.47350   0.12514  -0.5700190000
O          O       0.52653   0.05305   0.12517  -0.5706770000
C          C       0.55643   0.19315   0.04191  -0.0645650000
C          C       0.61015   0.14009   0.04167  -0.0520780000
H          H       0.53562   0.21391   0.04194   0.1034110000
H          H       0.63089   0.11928   0.04151   0.1047990000
C          C       0.80665   0.36330   0.04186  -0.0645030000
C          C       0.86009   0.47013   0.04177  -0.0525140000
H          H       0.78571   0.32170   0.04191   0.1030610000
H          H       0.88106   0.01171   0.04169   0.1046660000
C          C       0.63669   0.44353   0.04188  -0.0653510000
C          C       0.52984   0.38989   0.04150  -0.0518310000
H          H       0.67829   0.46428   0.04204   0.1037150000
H          H       0.98826   0.36921   0.04134   0.1052440000
C          C       0.94357   0.30684   0.12503  -0.0650540000
C          C       0.88985   0.35990   0.12500  -0.0521270000
H          H       0.96437   0.28607   0.12503   0.1037000000
H          H       0.86912   0.38072   0.12498   0.1047870000
C          C       0.69333   0.13669   0.12504  -0.0654390000
C          C       0.63991   0.02985   0.12499  -0.0513360000
H          H       0.71427   0.17828   0.12503   0.1038170000
H          H       0.61893   0.48826   0.12497   0.1043240000
C          C       0.86330   0.05646   0.12505  -0.0658510000
C          C       0.97014   0.11009   0.12504  -0.0509170000
H          H       0.82170   0.03571   0.12503   0.1038510000
H          H       0.51173   0.13079   0.12501   0.1044170000
C          C       0.69315   0.05642   0.12503  -0.0650400000
C          C       0.64009   0.11013   0.12500  -0.0521110000
H          H       0.71393   0.03562   0.12503   0.1036320000
H          H       0.61927   0.13086   0.12498   0.1048370000
C          C       0.86330   0.30666   0.12504  -0.0653480000
C          C       0.97014   0.36008   0.12499  -0.0512680000
H          H       0.82170   0.28572   0.12503   0.1037450000
H          H       0.51173   0.38106   0.12497   0.1043410000
C          C       0.94353   0.13669   0.12506  -0.0657610000
C          C       0.88989   0.02984   0.12504  -0.0508840000
H          H       0.96428   0.17830   0.12503   0.1038210000
H          H       0.86920   0.48827   0.12501   0.1044210000
C          C       0.80684   0.44356   0.04191  -0.0645770000
C          C       0.85990   0.38984   0.04167  -0.0520960000
H          H       0.78607   0.46437   0.04195   0.1033760000
H          H       0.88071   0.36911   0.04152   0.1048430000
C          C       0.63669   0.19334   0.04187  -0.0646070000
C          C       0.52986   0.13990   0.04177  -0.0525710000
H          H       0.67829   0.21428   0.04190   0.1032090000
H          H       0.98827   0.11892   0.04169   0.1046420000
C          C       0.55646   0.36330   0.04188  -0.0655020000
C          C       0.61010   0.47015   0.04150  -0.0517780000
H          H       0.53571   0.32170   0.04203   0.1036140000
H          H       0.63079   0.01173   0.04134   0.1052780000
C          C       0.55627   0.44372   0.04128  -0.2322650000
C          C       0.55632   0.11257   0.04166  -0.2307680000
C          C       0.88742   0.44367   0.04166  -0.2308380000
C          C       0.94372   0.05626   0.12506  -0.2313940000
C          C       0.94368   0.38743   0.12501  -0.2317030000
C          C       0.61257   0.05630   0.12501  -0.2316730000
B          B       0.52677   0.05348   0.20822   0.7116230000
O          O       0.69312   0.38641   0.20813  -0.5690630000
C          C       0.61029   0.22078   0.20825  -0.2424980000
B          B       0.94651   0.47321   0.20822   0.7116400000
O          O       0.61358   0.30686   0.20813  -0.5691320000
C          C       0.77920   0.38969   0.20825  -0.2425490000
B          B       0.52674   0.47325   0.20821   0.7128360000
O          O       0.69310   0.30689   0.20812  -0.5692150000
C          C       0.61033   0.38965   0.20824  -0.2429160000
B          B       0.97319   0.44651   0.29181   0.7119130000
O          O       0.80686   0.11357   0.29099  -0.5690320000
C          C       0.88969   0.27920   0.29131  -0.2426060000
B          B       0.55348   0.02679   0.29181   0.7119500000
O          O       0.88641   0.19312   0.29100  -0.5690650000
C          C       0.72078   0.11029   0.29132  -0.2425740000
B          B       0.97324   0.02674   0.29239   0.7109670000
O          O       0.80689   0.19309   0.29101  -0.5689950000
C          C       0.88965   0.11033   0.29127  -0.2423900000
B          B       0.71996   0.36008   0.20816   0.7184820000
B          B       0.63993   0.36005   0.20816   0.7192480000
B          B       0.63990   0.28003   0.20816   0.7184460000
B          B       0.78002   0.13990   0.29108   0.7180950000
B          B       0.86005   0.13994   0.29103   0.7194870000
B          B       0.86008   0.21996   0.29108   0.7181430000
O          O       0.55305   0.02653   0.20816  -0.5706160000
O          O       0.97350   0.02648   0.20819  -0.5700780000
O          O       0.97346   0.44694   0.20816  -0.5705670000
O          O       0.94693   0.47347   0.29256  -0.5697650000
O          O       0.52646   0.47352   0.29111  -0.5699920000
O          O       0.52651   0.05305   0.29256  -0.5698040000
C          C       0.55642   0.19315   0.20830  -0.0650280000
C          C       0.61013   0.14008   0.20833  -0.0520520000
H          H       0.53562   0.21392   0.20830   0.1035360000
H          H       0.63087   0.11927   0.20836   0.1049070000
C          C       0.80665   0.36330   0.20830  -0.0652400000
C          C       0.86008   0.47014   0.20834  -0.0513290000
H          H       0.78572   0.32170   0.20830   0.1038390000
H          H       0.88105   0.01172   0.20836   0.1042160000
C          C       0.63669   0.44353   0.20828  -0.0656940000
C          C       0.52985   0.38989   0.20829  -0.0510000000
H          H       0.67829   0.46428   0.20830   0.1039270000
H          H       0.98825   0.36921   0.20832   0.1043460000
C          C       0.94356   0.30684   0.29142  -0.0644880000
C          C       0.88983   0.35990   0.29167  -0.0521760000
H          H       0.96437   0.28607   0.29139   0.1035310000
H          H       0.86910   0.38070   0.29182   0.1046180000
C          C       0.69334   0.13669   0.29147  -0.0645230000
C          C       0.63989   0.02985   0.29157  -0.0524180000
H          H       0.71428   0.17829   0.29143   0.1030140000
H          H       0.61892   0.48827   0.29164   0.1046720000
C          C       0.86330   0.05646   0.29145  -0.0654360000
C          C       0.97014   0.11010   0.29184  -0.0517380000
H          H       0.82170   0.03571   0.29130   0.1035890000
H          H       0.51173   0.13079   0.29199   0.1053030000
C          C       0.69315   0.05643   0.29142  -0.0645420000
C          C       0.64009   0.11015   0.29167  -0.0521850000
H          H       0.71392   0.03562   0.29139   0.1034870000
H          H       0.61928   0.13088   0.29182   0.1046810000
C          C       0.86329   0.30665   0.29147  -0.0644930000
C          C       0.97013   0.36009   0.29157  -0.0525030000
H          H       0.82169   0.28571   0.29143   0.1030370000
H          H       0.51172   0.38106   0.29164   0.1046750000
C          C       0.94352   0.13669   0.29145  -0.0655540000
C          C       0.88988   0.02984   0.29183  -0.0518040000
H          H       0.96428   0.17829   0.29130   0.1035660000
H          H       0.86920   0.48826   0.29199   0.1053580000
C          C       0.80683   0.44357   0.20830  -0.0650620000
C          C       0.85990   0.38986   0.20833  -0.0520430000
H          H       0.78606   0.46437   0.20830   0.1035410000
H          H       0.88072   0.36912   0.20835   0.1049450000
C          C       0.63668   0.19334   0.20830  -0.0651980000
C          C       0.52985   0.13991   0.20834  -0.0513790000
H          H       0.67829   0.21427   0.20830   0.1038010000
H          H       0.98826   0.11893   0.20836   0.1042410000
C          C       0.55646   0.36329   0.20828  -0.0657150000
C          C       0.61010   0.47014   0.20829  -0.0510540000
H          H       0.53571   0.32169   0.20830   0.1038600000
H          H       0.63079   0.01172   0.20832   0.1043870000
C          C       0.55627   0.44373   0.20827  -0.2314960000
C          C       0.55630   0.11256   0.20833  -0.2316160000
C          C       0.88742   0.44368   0.20833  -0.2316490000
C          C       0.94371   0.05627   0.29205  -0.2321680000
C          C       0.94367   0.38742   0.29167  -0.2307330000
C          C       0.61256   0.05631   0.29167  -0.2307140000
B          B       0.02680   0.55348   0.04152   0.7119490000
O          O       0.19313   0.88641   0.04234  -0.5690780000
C          C       0.11030   0.72078   0.04202  -0.2426750000
B          B       0.44651   0.97319   0.04152   0.7119830000
O          O       0.11358   0.80687   0.04233  -0.5692330000
C          C       0.27920   0.88969   0.04202  -0.2426670000
B          B       0.02675   0.97324   0.04094   0.7111280000
O          O       0.19310   0.80689   0.04232  -0.5689190000
C          C       0.11033   0.88965   0.04207  -0.2424530000
B          B       0.47321   0.94651   0.12512   0.7117670000
O          O       0.30686   0.61357   0.12521  -0.5689490000
C          C       0.38969   0.77920   0.12508  -0.2423910000
B          B       0.05348   0.52677   0.12511   0.7117450000
O          O       0.38641   0.69312   0.12521  -0.5689900000
C          C       0.22078   0.61030   0.12508  -0.2423290000
B          B       0.47324   0.52674   0.12512   0.7126890000
O          O       0.30689   0.69310   0.12521  -0.5692960000
C          C       0.38965   0.61033   0.12509  -0.2430230000
B          B       0.21996   0.86009   0.04225   0.7182210000
B          B       0.13994   0.86005   0.04230   0.7194760000
B          B       0.13990   0.78003   0.04225   0.7182850000
B          B       0.28003   0.63991   0.12518   0.7183300000
B          B       0.36005   0.63993   0.12518   0.7193470000
B          B       0.36008   0.71996   0.12518   0.7183460000
O          O       0.05305   0.52651   0.04077  -0.5697780000
O          O       0.47352   0.52646   0.04222  -0.5700890000
O          O       0.47347   0.94694   0.04077  -0.5697810000
O          O       0.44694   0.97347   0.12517  -0.5707410000
O          O       0.02649   0.97350   0.12514  -0.5700190000
O          O       0.02653   0.55305   0.12517  -0.5706770000
C          C       0.05643   0.69315   0.04191  -0.0645650000
C          C       0.11015   0.64009   0.04167  -0.0520780000
H          H       0.03562   0.71391   0.04194   0.1034110000
H          H       0.13089   0.61928   0.04151   0.1047990000
C          C       0.30665   0.86330   0.04186  -0.0645030000
C          C       0.36009   0.97013   0.04177  -0.0525140000
H          H       0.28571   0.82170   0.04191   0.1030610000
H          H       0.38106   0.51172   0.04169   0.1046660000
C          C       0.13669   0.94353   0.04188  -0.0653510000
C          C       0.02984   0.88989   0.04150  -0.0518310000
H          H       0.17829   0.96428   0.04204   0.1037150000
H          H       0.48826   0.86921   0.04134   0.1052440000
C          C       0.44357   0.80684   0.12503  -0.0650540000
C          C       0.38985   0.85990   0.12500  -0.0521270000
H          H       0.46437   0.78607   0.12503   0.1037000000
H          H       0.36912   0.88072   0.12498   0.1047870000
C          C       0.19333   0.63668   0.12504  -0.0654390000
C          C       0.13991   0.52985   0.12499  -0.0513360000
H          H       0.21427   0.67828   0.12503   0.1038170000
H          H       0.11893   0.98826   0.12497   0.1043240000
C          C       0.36330   0.55646   0.12505  -0.0658510000
C          C       0.47014   0.61009   0.12504  -0.0509170000
H          H       0.32170   0.53571   0.12503   0.1038510000
H          H       0.01173   0.63078   0.12501   0.1044170000
C          C       0.19315   0.55642   0.12503  -0.0650400000
C          C       0.14008   0.61013   0.12500  -0.0521110000
H          H       0.21393   0.53562   0.12503   0.1036320000
H          H       0.11927   0.63087   0.12498   0.1048370000
C          C       0.36330   0.80665   0.12504  -0.0653480000
C          C       0.47014   0.86008   0.12499  -0.0512680000
H          H       0.32170   0.78572   0.12503   0.1037450000
H          H       0.01173   0.88106   0.12497   0.1043410000
C          C       0.44353   0.63669   0.12506  -0.0657610000
C          C       0.38989   0.52985   0.12504  -0.0508840000
H          H       0.46428   0.67829   0.12503   0.1038210000
H          H       0.36920   0.98826   0.12501   0.1044210000
C          C       0.30684   0.94356   0.04191  -0.0645770000
C          C       0.35990   0.88984   0.04167  -0.0520960000
H          H       0.28607   0.96437   0.04195   0.1033760000
H          H       0.38071   0.86911   0.04152   0.1048430000
C          C       0.13669   0.69334   0.04187  -0.0646070000
C          C       0.02986   0.63990   0.04177  -0.0525710000
H          H       0.17829   0.71428   0.04190   0.1032090000
H          H       0.48827   0.61892   0.04169   0.1046420000
C          C       0.05646   0.86330   0.04188  -0.0655020000
C          C       0.11010   0.97015   0.04150  -0.0517780000
H          H       0.03571   0.82170   0.04203   0.1036140000
H          H       0.13079   0.51173   0.04134   0.1052780000
C          C       0.05627   0.94372   0.04128  -0.2322650000
C          C       0.05632   0.61257   0.04166  -0.2307680000
C          C       0.38742   0.94367   0.04166  -0.2308380000
C          C       0.44372   0.55626   0.12506  -0.2313940000
C          C       0.44368   0.88743   0.12501  -0.2317030000
C          C       0.11257   0.55630   0.12501  -0.2316730000
B          B       0.02678   0.55347   0.20822   0.7116230000
O          O       0.19312   0.88641   0.20813  -0.5690630000
C          C       0.11029   0.72078   0.20825  -0.2424980000
B          B       0.44651   0.97321   0.20822   0.7116400000
O          O       0.11358   0.80686   0.20813  -0.5691320000
C          C       0.27920   0.88969   0.20825  -0.2425490000
B          B       0.02674   0.97325   0.20821   0.7128360000
O          O       0.19310   0.80689   0.20812  -0.5692150000
C          C       0.11033   0.88965   0.20824  -0.2429160000
B          B       0.47319   0.94651   0.29181   0.7119130000
O          O       0.30686   0.61357   0.29099  -0.5690320000
C          C       0.38969   0.77920   0.29131  -0.2426060000
B          B       0.05348   0.52680   0.29181   0.7119500000
O          O       0.38641   0.69312   0.29100  -0.5690650000
C          C       0.22078   0.61029   0.29132  -0.2425740000
B          B       0.47324   0.52675   0.29239   0.7109670000
O          O       0.30689   0.69309   0.29101  -0.5689950000
C          C       0.38965   0.61033   0.29127  -0.2423900000
B          B       0.21996   0.86008   0.20816   0.7184820000
B          B       0.13993   0.86005   0.20816   0.7192480000
B          B       0.13990   0.78003   0.20816   0.7184460000
B          B       0.28003   0.63990   0.29108   0.7180950000
B          B       0.36005   0.63993   0.29103   0.7194870000
B          B       0.36008   0.71995   0.29108   0.7181430000
O          O       0.05305   0.52652   0.20816  -0.5706160000
O          O       0.47350   0.52648   0.20819  -0.5700780000
O          O       0.47346   0.94694   0.20816  -0.5705670000
O          O       0.44693   0.97347   0.29256  -0.5697650000
O          O       0.02646   0.97352   0.29111  -0.5699920000
O          O       0.02651   0.55305   0.29256  -0.5698040000
C          C       0.05642   0.69315   0.20830  -0.0650280000
C          C       0.11013   0.64009   0.20833  -0.0520520000
H          H       0.03562   0.71392   0.20830   0.1035360000
H          H       0.13087   0.61927   0.20836   0.1049070000
C          C       0.30665   0.86330   0.20830  -0.0652400000
C          C       0.36008   0.97014   0.20834  -0.0513290000
H          H       0.28572   0.82170   0.20830   0.1038390000
H          H       0.38105   0.51172   0.20836   0.1042160000
C          C       0.13669   0.94353   0.20828  -0.0656940000
C          C       0.02985   0.88989   0.20829  -0.0510000000
H          H       0.17829   0.96428   0.20830   0.1039270000
H          H       0.48826   0.86921   0.20832   0.1043460000
C          C       0.44356   0.80684   0.29142  -0.0644880000
C          C       0.38984   0.85989   0.29167  -0.0521760000
H          H       0.46437   0.78607   0.29139   0.1035310000
H          H       0.36910   0.88070   0.29182   0.1046180000
C          C       0.19334   0.63669   0.29147  -0.0645230000
C          C       0.13990   0.52985   0.29157  -0.0524180000
H          H       0.21427   0.67829   0.29143   0.1030140000
H          H       0.11892   0.98827   0.29164   0.1046720000
C          C       0.36330   0.55646   0.29145  -0.0654360000
C          C       0.47014   0.61010   0.29184  -0.0517380000
H          H       0.32170   0.53570   0.29130   0.1035890000
H          H       0.01173   0.63078   0.29199   0.1053030000
C          C       0.19315   0.55642   0.29142  -0.0645420000
C          C       0.14009   0.61014   0.29167  -0.0521850000
H          H       0.21392   0.53562   0.29139   0.1034870000
H          H       0.11928   0.63088   0.29182   0.1046810000
C          C       0.36329   0.80665   0.29147  -0.0644930000
C          C       0.47013   0.86009   0.29157  -0.0525030000
H          H       0.32169   0.78571   0.29143   0.1030370000
H          H       0.01171   0.88106   0.29164   0.1046750000
C          C       0.44353   0.63669   0.29145  -0.0655540000
C          C       0.38988   0.52984   0.29183  -0.0518040000
H          H       0.46428   0.67829   0.29130   0.1035660000
H          H       0.36920   0.98826   0.29199   0.1053580000
C          C       0.30683   0.94357   0.20830  -0.0650620000
C          C       0.35990   0.88985   0.20833  -0.0520430000
H          H       0.28606   0.96437   0.20830   0.1035410000
H          H       0.38072   0.86912   0.20835   0.1049450000
C          C       0.13668   0.69333   0.20830  -0.0651980000
C          C       0.02985   0.63990   0.20834  -0.0513790000
H          H       0.17829   0.71427   0.20830   0.1038010000
H          H       0.48826   0.61893   0.20836   0.1042410000
C          C       0.05646   0.86329   0.20828  -0.0657150000
C          C       0.11010   0.97014   0.20829  -0.0510540000
H          H       0.03571   0.82169   0.20830   0.1038600000
H          H       0.13079   0.51173   0.20832   0.1043870000
C          C       0.05627   0.94373   0.20827  -0.2314960000
C          C       0.05630   0.61256   0.20833  -0.2316160000
C          C       0.38742   0.94368   0.20833  -0.2316490000
C          C       0.44371   0.55627   0.29205  -0.2321680000
C          C       0.44367   0.88742   0.29167  -0.2307330000
C          C       0.11257   0.55631   0.29167  -0.2307140000
B          B       0.52680   0.55348   0.04152   0.7119490000
O          O       0.69313   0.88641   0.04234  -0.5690780000
C          C       0.61030   0.72078   0.04202  -0.2426750000
B          B       0.94651   0.97319   0.04152   0.7119830000
O          O       0.61358   0.80687   0.04233  -0.5692330000
C          C       0.77920   0.88969   0.04202  -0.2426670000
B          B       0.52675   0.97324   0.04094   0.7111280000
O          O       0.69310   0.80689   0.04232  -0.5689190000
C          C       0.61033   0.88965   0.04207  -0.2424530000
B          B       0.97321   0.94651   0.12512   0.7117670000
O          O       0.80686   0.61357   0.12521  -0.5689490000
C          C       0.88969   0.77920   0.12508  -0.2423910000
B          B       0.55348   0.52677   0.12511   0.7117450000
O          O       0.88641   0.69312   0.12521  -0.5689900000
C          C       0.72078   0.61030   0.12508  -0.2423290000
B          B       0.97324   0.52674   0.12512   0.7126890000
O          O       0.80689   0.69310   0.12521  -0.5692960000
C          C       0.88965   0.61033   0.12509  -0.2430230000
B          B       0.71996   0.86009   0.04225   0.7182210000
B          B       0.63994   0.86005   0.04230   0.7194760000
B          B       0.63990   0.78003   0.04225   0.7182850000
B          B       0.78003   0.63991   0.12518   0.7183300000
B          B       0.86005   0.63993   0.12518   0.7193470000
B          B       0.86009   0.71996   0.12518   0.7183460000
O          O       0.55305   0.52651   0.04077  -0.5697780000
O          O       0.97352   0.52646   0.04222  -0.5700890000
O          O       0.97347   0.94694   0.04077  -0.5697810000
O          O       0.94694   0.97347   0.12517  -0.5707410000
O          O       0.52649   0.97350   0.12514  -0.5700190000
O          O       0.52653   0.55305   0.12517  -0.5706770000
C          C       0.55643   0.69315   0.04191  -0.0645650000
C          C       0.61015   0.64009   0.04167  -0.0520780000
H          H       0.53562   0.71391   0.04194   0.1034110000
H          H       0.63089   0.61928   0.04151   0.1047990000
C          C       0.80665   0.86330   0.04186  -0.0645030000
C          C       0.86009   0.97013   0.04177  -0.0525140000
H          H       0.78571   0.82170   0.04191   0.1030610000
H          H       0.88106   0.51172   0.04169   0.1046660000
C          C       0.63669   0.94353   0.04188  -0.0653510000
C          C       0.52984   0.88989   0.04150  -0.0518310000
H          H       0.67829   0.96428   0.04204   0.1037150000
H          H       0.98826   0.86921   0.04134   0.1052440000
C          C       0.94357   0.80684   0.12503  -0.0650540000
C          C       0.88985   0.85990   0.12500  -0.0521270000
H          H       0.96437   0.78607   0.12503   0.1037000000
H          H       0.86912   0.88072   0.12498   0.1047870000
C          C       0.69333   0.63668   0.12504  -0.0654390000
C          C       0.63991   0.52985   0.12499  -0.0513360000
H          H       0.71427   0.67828   0.12503   0.1038170000
H          H       0.61893   0.98826   0.12497   0.1043240000
C          C       0.86330   0.55646   0.12505  -0.0658510000
C          C       0.97014   0.61009   0.12504  -0.0509170000
H          H       0.82170   0.53571   0.12503   0.1038510000
H          H       0.51173   0.63078   0.12501   0.1044170000
C          C       0.69315   0.55642   0.12503  -0.0650400000
C          C       0.64009   0.61013   0.12500  -0.0521110000
H          H       0.71393   0.53562   0.12503   0.1036320000
H          H       0.61927   0.63087   0.12498   0.1048370000
C          C       0.86330   0.80665   0.12504  -0.0653480000
C          C       0.97014   0.86008   0.12499  -0.0512680000
H          H       0.82170   0.78572   0.12503   0.1037450000
H          H       0.51173   0.88106   0.12497   0.1043410000
C          C       0.94353   0.63669   0.12506  -0.0657610000
C          C       0.88989   0.52985   0.12504  -0.0508840000
H          H       0.96428   0.67829   0.12503   0.1038210000
H          H       0.86920   0.98826   0.12501   0.1044210000
C          C       0.80684   0.94356   0.04191  -0.0645770000
C          C       0.85990   0.88984   0.04167  -0.0520960000
H          H       0.78607   0.96437   0.04195   0.1033760000
H          H       0.88071   0.86911   0.04152   0.1048430000
C          C       0.63669   0.69334   0.04187  -0.0646070000
C          C       0.52986   0.63990   0.04177  -0.0525710000
H          H       0.67829   0.71428   0.04190   0.1032090000
H          H       0.98827   0.61892   0.04169   0.1046420000
C          C       0.55646   0.86330   0.04188  -0.0655020000
C          C       0.61010   0.97015   0.04150  -0.0517780000
H          H       0.53571   0.82170   0.04203   0.1036140000
H          H       0.63079   0.51173   0.04134   0.1052780000
C          C       0.55627   0.94372   0.04128  -0.2322650000
C          C       0.55632   0.61257   0.04166  -0.2307680000
C          C       0.88742   0.94367   0.04166  -0.2308380000
C          C       0.94372   0.55626   0.12506  -0.2313940000
C          C       0.94368   0.88743   0.12501  -0.2317030000
C          C       0.61257   0.55630   0.12501  -0.2316730000
B          B       0.52678   0.55347   0.20822   0.7116230000
O          O       0.69312   0.88641   0.20813  -0.5690630000
C          C       0.61029   0.72078   0.20825  -0.2424980000
B          B       0.94651   0.97321   0.20822   0.7116400000
O          O       0.61358   0.80686   0.20813  -0.5691320000
C          C       0.77920   0.88969   0.20825  -0.2425490000
B          B       0.52674   0.97325   0.20821   0.7128360000
O          O       0.69310   0.80689   0.20812  -0.5692150000
C          C       0.61033   0.88965   0.20824  -0.2429160000
B          B       0.97319   0.94651   0.29181   0.7119130000
O          O       0.80686   0.61357   0.29099  -0.5690320000
C          C       0.88969   0.77920   0.29131  -0.2426060000
B          B       0.55348   0.52680   0.29181   0.7119500000
O          O       0.88641   0.69312   0.29100  -0.5690650000
C          C       0.72078   0.61029   0.29132  -0.2425740000
B          B       0.97324   0.52675   0.29239   0.7109670000
O          O       0.80689   0.69309   0.29101  -0.5689950000
C          C       0.88965   0.61033   0.29127  -0.2423900000
B          B       0.71996   0.86008   0.20816   0.7184820000
B          B       0.63993   0.86005   0.20816   0.7192480000
B          B       0.63990   0.78003   0.20816   0.7184460000
B          B       0.78002   0.63990   0.29108   0.7180950000
B          B       0.86005   0.63993   0.29103   0.7194870000
B          B       0.86008   0.71995   0.29108   0.7181430000
O          O       0.55305   0.52652   0.20816  -0.5706160000
O          O       0.97350   0.52648   0.20819  -0.5700780000
O          O       0.97346   0.94694   0.20816  -0.5705670000
O          O       0.94693   0.97347   0.29256  -0.5697650000
O          O       0.52646   0.97352   0.29111  -0.5699920000
O          O       0.52651   0.55305   0.29256  -0.5698040000
C          C       0.55642   0.69315   0.20830  -0.0650280000
C          C       0.61013   0.64009   0.20833  -0.0520520000
H          H       0.53562   0.71392   0.20830   0.1035360000
H          H       0.63087   0.61927   0.20836   0.1049070000
C          C       0.80665   0.86330   0.20830  -0.0652400000
C          C       0.86008   0.97014   0.20834  -0.0513290000
H          H       0.78572   0.82170   0.20830   0.1038390000
H          H       0.88105   0.51172   0.20836   0.1042160000
C          C       0.63669   0.94353   0.20828  -0.0656940000
C          C       0.52985   0.88989   0.20829  -0.0510000000
H          H       0.67829   0.96428   0.20830   0.1039270000
H          H       0.98826   0.86921   0.20832   0.1043460000
C          C       0.94356   0.80684   0.29142  -0.0644880000
C          C       0.88984   0.85989   0.29167  -0.0521760000
H          H       0.96437   0.78607   0.29139   0.1035310000
H          H       0.86910   0.88070   0.29182   0.1046180000
C          C       0.69334   0.63669   0.29147  -0.0645230000
C          C       0.63990   0.52985   0.29157  -0.0524180000
H          H       0.71428   0.67829   0.29143   0.1030140000
H          H       0.61892   0.98827   0.29164   0.1046720000
C          C       0.86330   0.55646   0.29145  -0.0654360000
C          C       0.97014   0.61010   0.29184  -0.0517380000
H          H       0.82170   0.53570   0.29130   0.1035890000
H          H       0.51173   0.63078   0.29199   0.1053030000
C          C       0.69315   0.55642   0.29142  -0.0645420000
C          C       0.64009   0.61014   0.29167  -0.0521850000
H          H       0.71392   0.53562   0.29139   0.1034870000
H          H       0.61928   0.63088   0.29182   0.1046810000
C          C       0.86329   0.80665   0.29147  -0.0644930000
C          C       0.97013   0.86009   0.29157  -0.0525030000
H          H       0.82169   0.78571   0.29143   0.1030370000
H          H       0.51171   0.88106   0.29164   0.1046750000
C          C       0.94353   0.63669   0.29145  -0.0655540000
C          C       0.88988   0.52984   0.29183  -0.0518040000
H          H       0.96428   0.67829   0.29130   0.1035660000
H          H       0.86920   0.98826   0.29199   0.1053580000
C          C       0.80683   0.94357   0.20830  -0.0650620000
C          C       0.85990   0.88985   0.20833  -0.0520430000
H          H       0.78606   0.96437   0.20830   0.1035410000
H          H       0.88072   0.86912   0.20835   0.1049450000
C          C       0.63668   0.69333   0.20830  -0.0651980000
C          C       0.52985   0.63990   0.20834  -0.0513790000
H          H       0.67829   0.71427   0.20830   0.1038010000
H          H       0.98826   0.61893   0.20836   0.1042410000
C          C       0.55646   0.86329   0.20828  -0.0657150000
C          C       0.61010   0.97014   0.20829  -0.0510540000
H          H       0.53571   0.82169   0.20830   0.1038600000
H          H       0.63079   0.51173   0.20832   0.1043870000
C          C       0.55627   0.94373   0.20827  -0.2314960000
C          C       0.55630   0.61256   0.20833  -0.2316160000
C          C       0.88742   0.94368   0.20833  -0.2316490000
C          C       0.94371   0.55627   0.29205  -0.2321680000
C          C       0.94367   0.88742   0.29167  -0.2307330000
C          C       0.61257   0.55631   0.29167  -0.2307140000
B          B       0.02680   0.05348   0.37485   0.7119490000
O          O       0.19313   0.38642   0.37567  -0.5690780000
C          C       0.11030   0.22079   0.37535  -0.2426750000
B          B       0.44651   0.47319   0.37485   0.7119830000
O          O       0.11357   0.30686   0.37566  -0.5692330000
C          C       0.27920   0.38969   0.37535  -0.2426670000
B          B       0.02675   0.47324   0.37427   0.7111280000
O          O       0.19310   0.30689   0.37566  -0.5689190000
C          C       0.11033   0.38965   0.37540  -0.2424530000
B          B       0.47321   0.44651   0.45845   0.7117670000
O          O       0.30686   0.11357   0.45854  -0.5689490000
C          C       0.38969   0.27920   0.45842  -0.2423910000
B          B       0.05348   0.02678   0.45845   0.7117450000
O          O       0.38641   0.19312   0.45854  -0.5689900000
C          C       0.22078   0.11030   0.45842  -0.2423290000
B          B       0.47324   0.02674   0.45845   0.7126890000
O          O       0.30689   0.19310   0.45854  -0.5692960000
C          C       0.38965   0.11034   0.45843  -0.2430230000
B          B       0.21995   0.36009   0.37559   0.7182210000
B          B       0.13994   0.36006   0.37563   0.7194760000
B          B       0.13990   0.28003   0.37558   0.7182850000
B          B       0.28003   0.13991   0.45851   0.7183300000
B          B       0.36005   0.13994   0.45851   0.7193470000
B          B       0.36008   0.21996   0.45851   0.7183460000
O          O       0.05305   0.02652   0.37411  -0.5697780000
O          O       0.47352   0.02646   0.37555  -0.5700890000
O          O       0.47347   0.44694   0.37410  -0.5697810000
O          O       0.44694   0.47347   0.45851  -0.5707410000
O          O       0.02649   0.47350   0.45848  -0.5700190000
O          O       0.02653   0.05305   0.45851  -0.5706770000
C          C       0.05643   0.19315   0.37524  -0.0645650000
C          C       0.11015   0.14009   0.37500  -0.0520780000
H          H       0.03562   0.21391   0.37528   0.1034110000
H          H       0.13089   0.11928   0.37485   0.1047990000
C          C       0.30665   0.36330   0.37520  -0.0645030000
C          C       0.36009   0.47013   0.37510  -0.0525140000
H          H       0.28571   0.32170   0.37524   0.1030610000
H          H       0.38106   0.01171   0.37503   0.1046660000
C          C       0.13669   0.44353   0.37522  -0.0653510000
C          C       0.02984   0.38989   0.37483  -0.0518310000
H          H       0.17829   0.46428   0.37537   0.1037150000
H          H       0.48825   0.36921   0.37468   0.1052440000
C          C       0.44357   0.30684   0.45837  -0.0650540000
C          C       0.38985   0.35990   0.45834  -0.0521270000
H          H       0.46437   0.28606   0.45836   0.1037000000
H          H       0.36912   0.38072   0.45831   0.1047870000
C          C       0.19333   0.13669   0.45837  -0.0654390000
C          C       0.13991   0.02985   0.45833  -0.0513360000
H          H       0.21427   0.17828   0.45837   0.1038170000
H          H       0.11893   0.48826   0.45830   0.1043240000
C          C       0.36330   0.05646   0.45839  -0.0658510000
C          C       0.47014   0.11009   0.45838  -0.0509170000
H          H       0.32170   0.03571   0.45837   0.1038510000
H          H       0.01173   0.13079   0.45835   0.1044170000
C          C       0.19315   0.05642   0.45837  -0.0650400000
C          C       0.14008   0.11013   0.45834  -0.0521110000
H          H       0.21393   0.03562   0.45836   0.1036320000
H          H       0.11927   0.13087   0.45831   0.1048370000
C          C       0.36330   0.30665   0.45837  -0.0653480000
C          C       0.47014   0.36008   0.45833  -0.0512680000
H          H       0.32170   0.28572   0.45836   0.1037450000
H          H       0.01172   0.38106   0.45830   0.1043410000
C          C       0.44353   0.13669   0.45839  -0.0657610000
C          C       0.38989   0.02984   0.45838  -0.0508840000
H          H       0.46428   0.17830   0.45837   0.1038210000
H          H       0.36920   0.48827   0.45835   0.1044210000
C          C       0.30684   0.44356   0.37524  -0.0645770000
C          C       0.35990   0.38984   0.37500  -0.0520960000
H          H       0.28607   0.46437   0.37528   0.1033760000
H          H       0.38071   0.36911   0.37485   0.1048430000
C          C       0.13669   0.19334   0.37520  -0.0646070000
C          C       0.02985   0.13990   0.37510  -0.0525710000
H          H       0.17829   0.21428   0.37524   0.1032090000
H          H       0.48827   0.11892   0.37502   0.1046420000
C          C       0.05646   0.36330   0.37521  -0.0655020000
C          C       0.11010   0.47015   0.37483  -0.0517780000
H          H       0.03571   0.32170   0.37537   0.1036140000
H          H       0.13079   0.01173   0.37468   0.1052780000
C          C       0.05627   0.44372   0.37462  -0.2322650000
C          C       0.05632   0.11257   0.37499  -0.2307680000
C          C       0.38742   0.44367   0.37500  -0.2308380000
C          C       0.44372   0.05626   0.45840  -0.2313940000
C          C       0.44368   0.38742   0.45834  -0.2317030000
C          C       0.11257   0.05631   0.45834  -0.2316730000
B          B       0.02678   0.05348   0.54155   0.7116230000
O          O       0.19312   0.38641   0.54146  -0.5690630000
C          C       0.11029   0.22078   0.54158  -0.2424980000
B          B       0.44650   0.47321   0.54155   0.7116400000
O          O       0.11358   0.30686   0.54146  -0.5691320000
C          C       0.27920   0.38969   0.54158  -0.2425490000
B          B       0.02674   0.47324   0.54155   0.7128360000
O          O       0.19309   0.30689   0.54146  -0.5692150000
C          C       0.11033   0.38965   0.54157  -0.2429160000
B          B       0.47319   0.44651   0.62515   0.7119130000
O          O       0.30686   0.11357   0.62433  -0.5690320000
C          C       0.38969   0.27920   0.62465  -0.2426060000
B          B       0.05348   0.02679   0.62515   0.7119500000
O          O       0.38641   0.19312   0.62434  -0.5690650000
C          C       0.22078   0.11029   0.62465  -0.2425740000
B          B       0.47324   0.02675   0.62573   0.7109670000
O          O       0.30689   0.19309   0.62434  -0.5689950000
C          C       0.38965   0.11034   0.62460  -0.2423900000
B          B       0.21995   0.36008   0.54149   0.7184820000
B          B       0.13993   0.36005   0.54149   0.7192480000
B          B       0.13990   0.28003   0.54149   0.7184460000
B          B       0.28003   0.13990   0.62441   0.7180950000
B          B       0.36005   0.13994   0.62437   0.7194870000
B          B       0.36008   0.21996   0.62442   0.7181430000
O          O       0.05305   0.02652   0.54149  -0.5706160000
O          O       0.47350   0.02648   0.54152  -0.5700780000
O          O       0.47346   0.44694   0.54149  -0.5705670000
O          O       0.44693   0.47347   0.62589  -0.5697650000
O          O       0.02646   0.47352   0.62445  -0.5699920000
O          O       0.02651   0.05305   0.62590  -0.5698040000
C          C       0.05641   0.19315   0.54163  -0.0650280000
C          C       0.11013   0.14008   0.54166  -0.0520520000
H          H       0.03562   0.21392   0.54164   0.1035360000
H          H       0.13087   0.11927   0.54169   0.1049070000
C          C       0.30665   0.36330   0.54163  -0.0652400000
C          C       0.36008   0.47014   0.54167  -0.0513290000
H          H       0.28571   0.32170   0.54163   0.1038390000
H          H       0.38105   0.01172   0.54170   0.1042160000
C          C       0.13669   0.44353   0.54161  -0.0656940000
C          C       0.02984   0.38989   0.54162  -0.0510000000
H          H       0.17829   0.46428   0.54163   0.1039270000
H          H       0.48826   0.36921   0.54165   0.1043460000
C          C       0.44356   0.30684   0.62476  -0.0644880000
C          C       0.38984   0.35989   0.62500  -0.0521760000
H          H       0.46437   0.28607   0.62472   0.1035310000
H          H       0.36910   0.38070   0.62515   0.1046180000
C          C       0.19334   0.13669   0.62480  -0.0645230000
C          C       0.13990   0.02985   0.62490  -0.0524180000
H          H       0.21428   0.17829   0.62476   0.1030140000
H          H       0.11892   0.48827   0.62497   0.1046720000
C          C       0.36330   0.05646   0.62478  -0.0654360000
C          C       0.47014   0.11010   0.62517  -0.0517380000
H          H       0.32170   0.03571   0.62463   0.1035890000
H          H       0.01173   0.13079   0.62532   0.1053030000
C          C       0.19315   0.05643   0.62476  -0.0645420000
C          C       0.14009   0.11015   0.62500  -0.0521850000
H          H       0.21391   0.03562   0.62472   0.1034870000
H          H       0.11928   0.13088   0.62515   0.1046810000
C          C       0.36329   0.30665   0.62480  -0.0644930000
C          C       0.47013   0.36009   0.62490  -0.0525030000
H          H       0.32169   0.28571   0.62476   0.1030370000
H          H       0.01172   0.38106   0.62498   0.1046750000
C          C       0.44353   0.13669   0.62479  -0.0655540000
C          C       0.38988   0.02984   0.62517  -0.0518040000
H          H       0.46428   0.17829   0.62463   0.1035660000
H          H       0.36920   0.48826   0.62532   0.1053580000
C          C       0.30683   0.44357   0.54163  -0.0650620000
C          C       0.35990   0.38985   0.54166  -0.0520430000
H          H       0.28606   0.46436   0.54164   0.1035410000
H          H       0.38072   0.36912   0.54169   0.1049450000
C          C       0.13668   0.19334   0.54163  -0.0651980000
C          C       0.02985   0.13991   0.54167  -0.0513790000
H          H       0.17829   0.21427   0.54163   0.1038010000
H          H       0.48826   0.11893   0.54170   0.1042410000
C          C       0.05645   0.36329   0.54161  -0.0657150000
C          C       0.11010   0.47014   0.54162  -0.0510540000
H          H       0.03570   0.32169   0.54163   0.1038600000
H          H       0.13079   0.01173   0.54165   0.1043870000
C          C       0.05627   0.44372   0.54160  -0.2314960000
C          C       0.05630   0.11256   0.54166  -0.2316160000
C          C       0.38742   0.44368   0.54166  -0.2316490000
C          C       0.44371   0.05627   0.62538  -0.2321680000
C          C       0.44366   0.38742   0.62500  -0.2307330000
C          C       0.11257   0.05631   0.62500  -0.2307140000
B          B       0.52680   0.05348   0.37485   0.7119490000
O          O       0.69313   0.38642   0.37567  -0.5690780000
C          C       0.61030   0.22079   0.37535  -0.2426750000
B          B       0.94650   0.47319   0.37485   0.7119830000
O          O       0.61358   0.30686   0.37566  -0.5692330000
C          C       0.77920   0.38969   0.37535  -0.2426670000
B          B       0.52675   0.47324   0.37427   0.7111280000
O          O       0.69310   0.30689   0.37566  -0.5689190000
C          C       0.61033   0.38965   0.37540  -0.2424530000
B          B       0.97321   0.44651   0.45845   0.7117670000
O          O       0.80686   0.11357   0.45854  -0.5689490000
C          C       0.88969   0.27920   0.45842  -0.2423910000
B          B       0.55347   0.02678   0.45845   0.7117450000
O          O       0.88641   0.19312   0.45854  -0.5689900000
C          C       0.72078   0.11030   0.45842  -0.2423290000
B          B       0.97324   0.02674   0.45845   0.7126890000
O          O       0.80689   0.19310   0.45854  -0.5692960000
C          C       0.88965   0.11034   0.45843  -0.2430230000
B          B       0.71996   0.36009   0.37559   0.7182210000
B          B       0.63994   0.36006   0.37563   0.7194760000
B          B       0.63990   0.28003   0.37558   0.7182850000
B          B       0.78003   0.13991   0.45851   0.7183300000
B          B       0.86005   0.13994   0.45851   0.7193470000
B          B       0.86009   0.21996   0.45851   0.7183460000
O          O       0.55305   0.02652   0.37411  -0.5697780000
O          O       0.97352   0.02646   0.37555  -0.5700890000
O          O       0.97347   0.44694   0.37410  -0.5697810000
O          O       0.94694   0.47347   0.45851  -0.5707410000
O          O       0.52649   0.47350   0.45848  -0.5700190000
O          O       0.52653   0.05305   0.45851  -0.5706770000
C          C       0.55643   0.19315   0.37524  -0.0645650000
C          C       0.61015   0.14009   0.37500  -0.0520780000
H          H       0.53562   0.21391   0.37528   0.1034110000
H          H       0.63089   0.11928   0.37485   0.1047990000
C          C       0.80665   0.36330   0.37520  -0.0645030000
C          C       0.86009   0.47013   0.37510  -0.0525140000
H          H       0.78571   0.32170   0.37524   0.1030610000
H          H       0.88106   0.01171   0.37503   0.1046660000
C          C       0.63669   0.44353   0.37522  -0.0653510000
C          C       0.52984   0.38989   0.37483  -0.0518310000
H          H       0.67829   0.46428   0.37537   0.1037150000
H          H       0.98826   0.36921   0.37468   0.1052440000
C          C       0.94357   0.30684   0.45837  -0.0650540000
C          C       0.88985   0.35990   0.45834  -0.0521270000
H          H       0.96437   0.28606   0.45836   0.1037000000
H          H       0.86912   0.38072   0.45831   0.1047870000
C          C       0.69333   0.13669   0.45837  -0.0654390000
C          C       0.63991   0.02985   0.45833  -0.0513360000
H          H       0.71427   0.17828   0.45837   0.1038170000
H          H       0.61893   0.48826   0.45830   0.1043240000
C          C       0.86329   0.05646   0.45839  -0.0658510000
C          C       0.97014   0.11009   0.45838  -0.0509170000
H          H       0.82170   0.03571   0.45837   0.1038510000
H          H       0.51173   0.13079   0.45835   0.1044170000
C          C       0.69315   0.05642   0.45837  -0.0650400000
C          C       0.64009   0.11013   0.45834  -0.0521110000
H          H       0.71393   0.03562   0.45836   0.1036320000
H          H       0.61927   0.13087   0.45831   0.1048370000
C          C       0.86330   0.30665   0.45837  -0.0653480000
C          C       0.97014   0.36008   0.45833  -0.0512680000
H          H       0.82170   0.28572   0.45836   0.1037450000
H          H       0.51173   0.38106   0.45830   0.1043410000
C          C       0.94353   0.13669   0.45839  -0.0657610000
C          C       0.88989   0.02984   0.45838  -0.0508840000
H          H       0.96428   0.17830   0.45837   0.1038210000
H          H       0.86920   0.48827   0.45835   0.1044210000
C          C       0.80684   0.44356   0.37524  -0.0645770000
C          C       0.85990   0.38984   0.37500  -0.0520960000
H          H       0.78607   0.46437   0.37528   0.1033760000
H          H       0.88071   0.36911   0.37485   0.1048430000
C          C       0.63669   0.19334   0.37520  -0.0646070000
C          C       0.52986   0.13990   0.37510  -0.0525710000
H          H       0.67829   0.21428   0.37524   0.1032090000
H          H       0.98827   0.11892   0.37502   0.1046420000
C          C       0.55646   0.36330   0.37521  -0.0655020000
C          C       0.61010   0.47015   0.37483  -0.0517780000
H          H       0.53570   0.32170   0.37537   0.1036140000
H          H       0.63078   0.01173   0.37468   0.1052780000
C          C       0.55627   0.44372   0.37462  -0.2322650000
C          C       0.55632   0.11257   0.37499  -0.2307680000
C          C       0.88741   0.44367   0.37500  -0.2308380000
C          C       0.94372   0.05626   0.45840  -0.2313940000
C          C       0.94368   0.38742   0.45834  -0.2317030000
C          C       0.61257   0.05631   0.45834  -0.2316730000
B          B       0.52678   0.05348   0.54155   0.7116230000
O          O       0.69312   0.38641   0.54146  -0.5690630000
C          C       0.61029   0.22078   0.54158  -0.2424980000
B          B       0.94651   0.47321   0.54155   0.7116400000
O          O       0.61358   0.30686   0.54146  -0.5691320000
C          C       0.77920   0.38969   0.54158  -0.2425490000
B          B       0.52674   0.47324   0.54155   0.7128360000
O          O       0.69310   0.30689   0.54146  -0.5692150000
C          C       0.61033   0.38965   0.54157  -0.2429160000
B          B       0.97319   0.44651   0.62515   0.7119130000
O          O       0.80686   0.11357   0.62433  -0.5690320000
C          C       0.88969   0.27920   0.62465  -0.2426060000
B          B       0.55348   0.02679   0.62515   0.7119500000
O          O       0.88641   0.19312   0.62434  -0.5690650000
C          C       0.72078   0.11029   0.62465  -0.2425740000
B          B       0.97323   0.02675   0.62573   0.7109670000
O          O       0.80689   0.19309   0.62434  -0.5689950000
C          C       0.88965   0.11034   0.62460  -0.2423900000
B          B       0.71996   0.36008   0.54149   0.7184820000
B          B       0.63993   0.36005   0.54149   0.7192480000
B          B       0.63990   0.28003   0.54149   0.7184460000
B          B       0.78002   0.13990   0.62441   0.7180950000
B          B       0.86005   0.13994   0.62437   0.7194870000
B          B       0.86008   0.21996   0.62442   0.7181430000
O          O       0.55305   0.02652   0.54149  -0.5706160000
O          O       0.97350   0.02648   0.54152  -0.5700780000
O          O       0.97346   0.44694   0.54149  -0.5705670000
O          O       0.94693   0.47347   0.62589  -0.5697650000
O          O       0.52646   0.47352   0.62445  -0.5699920000
O          O       0.52651   0.05305   0.62590  -0.5698040000
C          C       0.55642   0.19315   0.54163  -0.0650280000
C          C       0.61013   0.14008   0.54166  -0.0520520000
H          H       0.53562   0.21392   0.54164   0.1035360000
H          H       0.63087   0.11927   0.54169   0.1049070000
C          C       0.80665   0.36330   0.54163  -0.0652400000
C          C       0.86008   0.47014   0.54167  -0.0513290000
H          H       0.78572   0.32170   0.54163   0.1038390000
H          H       0.88105   0.01172   0.54170   0.1042160000
C          C       0.63669   0.44353   0.54161  -0.0656940000
C          C       0.52985   0.38989   0.54162  -0.0510000000
H          H       0.67829   0.46428   0.54163   0.1039270000
H          H       0.98825   0.36921   0.54165   0.1043460000
C          C       0.94356   0.30684   0.62476  -0.0644880000
C          C       0.88983   0.35989   0.62500  -0.0521760000
H          H       0.96437   0.28607   0.62472   0.1035310000
H          H       0.86910   0.38070   0.62515   0.1046180000
C          C       0.69334   0.13669   0.62480  -0.0645230000
C          C       0.63989   0.02985   0.62490  -0.0524180000
H          H       0.71427   0.17829   0.62476   0.1030140000
H          H       0.61892   0.48827   0.62497   0.1046720000
C          C       0.86330   0.05646   0.62478  -0.0654360000
C          C       0.97014   0.11010   0.62517  -0.0517380000
H          H       0.82170   0.03571   0.62463   0.1035890000
H          H       0.51173   0.13079   0.62532   0.1053030000
C          C       0.69315   0.05643   0.62476  -0.0645420000
C          C       0.64009   0.11015   0.62500  -0.0521850000
H          H       0.71392   0.03562   0.62472   0.1034870000
H          H       0.61928   0.13088   0.62515   0.1046810000
C          C       0.86329   0.30665   0.62480  -0.0644930000
C          C       0.97013   0.36009   0.62490  -0.0525030000
H          H       0.82169   0.28571   0.62476   0.1030370000
H          H       0.51172   0.38106   0.62498   0.1046750000
C          C       0.94352   0.13669   0.62479  -0.0655540000
C          C       0.88988   0.02984   0.62517  -0.0518040000
H          H       0.96428   0.17829   0.62463   0.1035660000
H          H       0.86920   0.48826   0.62532   0.1053580000
C          C       0.80683   0.44357   0.54163  -0.0650620000
C          C       0.85990   0.38985   0.54166  -0.0520430000
H          H       0.78606   0.46436   0.54164   0.1035410000
H          H       0.88072   0.36912   0.54169   0.1049450000
C          C       0.63668   0.19334   0.54163  -0.0651980000
C          C       0.52985   0.13991   0.54167  -0.0513790000
H          H       0.67829   0.21427   0.54163   0.1038010000
H          H       0.98826   0.11893   0.54170   0.1042410000
C          C       0.55646   0.36329   0.54161  -0.0657150000
C          C       0.61010   0.47014   0.54162  -0.0510540000
H          H       0.53570   0.32169   0.54163   0.1038600000
H          H       0.63078   0.01173   0.54165   0.1043870000
C          C       0.55627   0.44372   0.54160  -0.2314960000
C          C       0.55630   0.11256   0.54166  -0.2316160000
C          C       0.88742   0.44368   0.54166  -0.2316490000
C          C       0.94371   0.05627   0.62538  -0.2321680000
C          C       0.94366   0.38742   0.62500  -0.2307330000
C          C       0.61256   0.05631   0.62500  -0.2307140000
B          B       0.02679   0.55348   0.37485   0.7119490000
O          O       0.19313   0.88641   0.37567  -0.5690780000
C          C       0.11029   0.72079   0.37535  -0.2426750000
B          B       0.44651   0.97319   0.37485   0.7119830000
O          O       0.11358   0.80686   0.37566  -0.5692330000
C          C       0.27920   0.88969   0.37535  -0.2426670000
B          B       0.02675   0.97324   0.37427   0.7111280000
O          O       0.19309   0.80689   0.37566  -0.5689190000
C          C       0.11033   0.88965   0.37540  -0.2424530000
B          B       0.47321   0.94651   0.45845   0.7117670000
O          O       0.30686   0.61357   0.45854  -0.5689490000
C          C       0.38969   0.77920   0.45842  -0.2423910000
B          B       0.05348   0.52677   0.45845   0.7117450000
O          O       0.38641   0.69312   0.45854  -0.5689900000
C          C       0.22078   0.61029   0.45842  -0.2423290000
B          B       0.47324   0.52674   0.45845   0.7126890000
O          O       0.30689   0.69310   0.45854  -0.5692960000
C          C       0.38965   0.61033   0.45843  -0.2430230000
B          B       0.21996   0.86009   0.37559   0.7182210000
B          B       0.13994   0.86006   0.37563   0.7194760000
B          B       0.13990   0.78003   0.37558   0.7182850000
B          B       0.28003   0.63990   0.45851   0.7183300000
B          B       0.36005   0.63993   0.45851   0.7193470000
B          B       0.36008   0.71996   0.45851   0.7183460000
O          O       0.05305   0.52651   0.37411  -0.5697780000
O          O       0.47352   0.52646   0.37555  -0.5700890000
O          O       0.47347   0.94694   0.37410  -0.5697810000
O          O       0.44694   0.97346   0.45851  -0.5707410000
O          O       0.02649   0.97350   0.45848  -0.5700190000
O          O       0.02652   0.55305   0.45851  -0.5706770000
C          C       0.05643   0.69315   0.37524  -0.0645650000
C          C       0.11015   0.64009   0.37500  -0.0520780000
H          H       0.03562   0.71391   0.37528   0.1034110000
H          H       0.13089   0.61928   0.37485   0.1047990000
C          C       0.30665   0.86330   0.37520  -0.0645030000
C          C       0.36009   0.97013   0.37510  -0.0525140000
H          H       0.28571   0.82170   0.37524   0.1030610000
H          H       0.38106   0.51171   0.37503   0.1046660000
C          C       0.13669   0.94353   0.37522  -0.0653510000
C          C       0.02984   0.88989   0.37483  -0.0518310000
H          H       0.17829   0.96428   0.37537   0.1037150000
H          H       0.48826   0.86920   0.37468   0.1052440000
C          C       0.44357   0.80684   0.45837  -0.0650540000
C          C       0.38985   0.85990   0.45834  -0.0521270000
H          H       0.46437   0.78607   0.45836   0.1037000000
H          H       0.36912   0.88072   0.45831   0.1047870000
C          C       0.19333   0.63668   0.45837  -0.0654390000
C          C       0.13991   0.52985   0.45833  -0.0513360000
H          H       0.21427   0.67828   0.45837   0.1038170000
H          H       0.11893   0.98826   0.45830   0.1043240000
C          C       0.36330   0.55646   0.45839  -0.0658510000
C          C       0.47014   0.61009   0.45838  -0.0509170000
H          H       0.32170   0.53571   0.45837   0.1038510000
H          H       0.01173   0.63078   0.45835   0.1044170000
C          C       0.19315   0.55642   0.45837  -0.0650400000
C          C       0.14009   0.61013   0.45834  -0.0521110000
H          H       0.21393   0.53562   0.45836   0.1036320000
H          H       0.11927   0.63086   0.45831   0.1048370000
C          C       0.36330   0.80665   0.45837  -0.0653480000
C          C       0.47014   0.86008   0.45833  -0.0512680000
H          H       0.32170   0.78572   0.45836   0.1037450000
H          H       0.01173   0.88106   0.45830   0.1043410000
C          C       0.44353   0.63669   0.45839  -0.0657610000
C          C       0.38989   0.52984   0.45838  -0.0508840000
H          H       0.46428   0.67829   0.45837   0.1038210000
H          H       0.36920   0.98826   0.45835   0.1044210000
C          C       0.30684   0.94356   0.37524  -0.0645770000
C          C       0.35990   0.88984   0.37500  -0.0520960000
H          H       0.28607   0.96437   0.37528   0.1033760000
H          H       0.38071   0.86911   0.37485   0.1048430000
C          C       0.13669   0.69334   0.37520  -0.0646070000
C          C       0.02986   0.63990   0.37510  -0.0525710000
H          H       0.17829   0.71428   0.37524   0.1032090000
H          H       0.48827   0.61892   0.37502   0.1046420000
C          C       0.05646   0.86330   0.37521  -0.0655020000
C          C       0.11010   0.97015   0.37483  -0.0517780000
H          H       0.03571   0.82170   0.37537   0.1036140000
H          H       0.13079   0.51173   0.37468   0.1052780000
C          C       0.05627   0.94372   0.37462  -0.2322650000
C          C       0.05632   0.61257   0.37499  -0.2307680000
C          C       0.38742   0.94367   0.37500  -0.2308380000
C          C       0.44372   0.55626   0.45840  -0.2313940000
C          C       0.44368   0.88742   0.45834  -0.2317030000
C          C       0.11257   0.55630   0.45834  -0.2316730000
B          B       0.02677   0.55347   0.54155   0.7116230000
O          O       0.19312   0.88641   0.54146  -0.5690630000
C          C       0.11029   0.72078   0.54158  -0.2424980000
B          B       0.44651   0.97321   0.54155   0.7116400000
O          O       0.11358   0.80686   0.54146  -0.5691320000
C          C       0.27920   0.88969   0.54158  -0.2425490000
B          B       0.02674   0.97324   0.54155   0.7128360000
O          O       0.19310   0.80689   0.54146  -0.5692150000
C          C       0.11033   0.88965   0.54157  -0.2429160000
B          B       0.47319   0.94651   0.62515   0.7119130000
O          O       0.30686   0.61357   0.62433  -0.5690320000
C          C       0.38969   0.77920   0.62465  -0.2426060000
B          B       0.05348   0.52679   0.62515   0.7119500000
O          O       0.38641   0.69312   0.62434  -0.5690650000
C          C       0.22078   0.61029   0.62465  -0.2425740000
B          B       0.47324   0.52674   0.62573   0.7109670000
O          O       0.30689   0.69309   0.62434  -0.5689950000
C          C       0.38965   0.61033   0.62460  -0.2423900000
B          B       0.21996   0.86008   0.54149   0.7184820000
B          B       0.13993   0.86006   0.54149   0.7192480000
B          B       0.13990   0.78003   0.54149   0.7184460000
B          B       0.28003   0.63990   0.62441   0.7180950000
B          B       0.36005   0.63993   0.62437   0.7194870000
B          B       0.36008   0.71996   0.62442   0.7181430000
O          O       0.05305   0.52652   0.54149  -0.5706160000
O          O       0.47350   0.52648   0.54152  -0.5700780000
O          O       0.47346   0.94694   0.54149  -0.5705670000
O          O       0.44693   0.97347   0.62589  -0.5697650000
O          O       0.02646   0.97352   0.62445  -0.5699920000
O          O       0.02651   0.55305   0.62590  -0.5698040000
C          C       0.05641   0.69315   0.54163  -0.0650280000
C          C       0.11013   0.64008   0.54166  -0.0520520000
H          H       0.03562   0.71392   0.54164   0.1035360000
H          H       0.13087   0.61927   0.54169   0.1049070000
C          C       0.30665   0.86330   0.54163  -0.0652400000
C          C       0.36008   0.97014   0.54167  -0.0513290000
H          H       0.28572   0.82170   0.54163   0.1038390000
H          H       0.38105   0.51172   0.54170   0.1042160000
C          C       0.13669   0.94353   0.54161  -0.0656940000
C          C       0.02985   0.88989   0.54162  -0.0510000000
H          H       0.17829   0.96428   0.54163   0.1039270000
H          H       0.48826   0.86920   0.54165   0.1043460000
C          C       0.44356   0.80684   0.62476  -0.0644880000
C          C       0.38983   0.85989   0.62500  -0.0521760000
H          H       0.46437   0.78607   0.62472   0.1035310000
H          H       0.36910   0.88070   0.62515   0.1046180000
C          C       0.19334   0.63669   0.62480  -0.0645230000
C          C       0.13990   0.52985   0.62490  -0.0524180000
H          H       0.21428   0.67829   0.62476   0.1030140000
H          H       0.11892   0.98827   0.62497   0.1046720000
C          C       0.36330   0.55646   0.62478  -0.0654360000
C          C       0.47014   0.61010   0.62517  -0.0517380000
H          H       0.32170   0.53570   0.62463   0.1035890000
H          H       0.01173   0.63078   0.62532   0.1053030000
C          C       0.19315   0.55642   0.62476  -0.0645420000
C          C       0.14009   0.61014   0.62500  -0.0521850000
H          H       0.21392   0.53562   0.62472   0.1034870000
H          H       0.11928   0.63088   0.62515   0.1046810000
C          C       0.36329   0.80665   0.62480  -0.0644930000
C          C       0.47013   0.86009   0.62490  -0.0525030000
H          H       0.32169   0.78571   0.62476   0.1030370000
H          H       0.01172   0.88106   0.62498   0.1046750000
C          C       0.44353   0.63669   0.62479  -0.0655540000
C          C       0.38988   0.52984   0.62517  -0.0518040000
H          H       0.46428   0.67829   0.62463   0.1035660000
H          H       0.36920   0.98826   0.62532   0.1053580000
C          C       0.30683   0.94357   0.54163  -0.0650620000
C          C       0.35990   0.88985   0.54166  -0.0520430000
H          H       0.28606   0.96437   0.54164   0.1035410000
H          H       0.38072   0.86912   0.54169   0.1049450000
C          C       0.13668   0.69333   0.54163  -0.0651980000
C          C       0.02985   0.63990   0.54167  -0.0513790000
H          H       0.17829   0.71427   0.54163   0.1038010000
H          H       0.48826   0.61893   0.54170   0.1042410000
C          C       0.05646   0.86329   0.54161  -0.0657150000
C          C       0.11009   0.97014   0.54162  -0.0510540000
H          H       0.03571   0.82169   0.54163   0.1038600000
H          H       0.13079   0.51172   0.54165   0.1043870000
C          C       0.05627   0.94373   0.54160  -0.2314960000
C          C       0.05630   0.61256   0.54166  -0.2316160000
C          C       0.38742   0.94368   0.54166  -0.2316490000
C          C       0.44371   0.55627   0.62538  -0.2321680000
C          C       0.44366   0.88742   0.62500  -0.2307330000
C          C       0.11256   0.55631   0.62500  -0.2307140000
B          B       0.52680   0.55348   0.37485   0.7119490000
O          O       0.69313   0.88641   0.37567  -0.5690780000
C          C       0.61030   0.72079   0.37535  -0.2426750000
B          B       0.94651   0.97319   0.37485   0.7119830000
O          O       0.61358   0.80686   0.37566  -0.5692330000
C          C       0.77920   0.88969   0.37535  -0.2426670000
B          B       0.52675   0.97324   0.37427   0.7111280000
O          O       0.69310   0.80689   0.37566  -0.5689190000
C          C       0.61033   0.88965   0.37540  -0.2424530000
B          B       0.97321   0.94651   0.45845   0.7117670000
O          O       0.80686   0.61357   0.45854  -0.5689490000
C          C       0.88969   0.77920   0.45842  -0.2423910000
B          B       0.55348   0.52677   0.45845   0.7117450000
O          O       0.88641   0.69312   0.45854  -0.5689900000
C          C       0.72078   0.61029   0.45842  -0.2423290000
B          B       0.97324   0.52674   0.45845   0.7126890000
O          O       0.80689   0.69310   0.45854  -0.5692960000
C          C       0.88965   0.61033   0.45843  -0.2430230000
B          B       0.71996   0.86009   0.37559   0.7182210000
B          B       0.63994   0.86006   0.37563   0.7194760000
B          B       0.63990   0.78003   0.37558   0.7182850000
B          B       0.78003   0.63990   0.45851   0.7183300000
B          B       0.86005   0.63993   0.45851   0.7193470000
B          B       0.86009   0.71996   0.45851   0.7183460000
O          O       0.55305   0.52651   0.37411  -0.5697780000
O          O       0.97352   0.52646   0.37555  -0.5700890000
O          O       0.97347   0.94694   0.37410  -0.5697810000
O          O       0.94694   0.97346   0.45851  -0.5707410000
O          O       0.52649   0.97350   0.45848  -0.5700190000
O          O       0.52653   0.55305   0.45851  -0.5706770000
C          C       0.55643   0.69315   0.37524  -0.0645650000
C          C       0.61015   0.64009   0.37500  -0.0520780000
H          H       0.53562   0.71391   0.37528   0.1034110000
H          H       0.63089   0.61928   0.37485   0.1047990000
C          C       0.80665   0.86330   0.37520  -0.0645030000
C          C       0.86009   0.97013   0.37510  -0.0525140000
H          H       0.78571   0.82170   0.37524   0.1030610000
H          H       0.88106   0.51171   0.37503   0.1046660000
C          C       0.63669   0.94353   0.37522  -0.0653510000
C          C       0.52984   0.88989   0.37483  -0.0518310000
H          H       0.67829   0.96428   0.37537   0.1037150000
H          H       0.98826   0.86920   0.37468   0.1052440000
C          C       0.94357   0.80684   0.45837  -0.0650540000
C          C       0.88985   0.85990   0.45834  -0.0521270000
H          H       0.96437   0.78607   0.45836   0.1037000000
H          H       0.86912   0.88072   0.45831   0.1047870000
C          C       0.69333   0.63668   0.45837  -0.0654390000
C          C       0.63991   0.52985   0.45833  -0.0513360000
H          H       0.71427   0.67828   0.45837   0.1038170000
H          H       0.61893   0.98826   0.45830   0.1043240000
C          C       0.86330   0.55646   0.45839  -0.0658510000
C          C       0.97014   0.61009   0.45838  -0.0509170000
H          H       0.82170   0.53571   0.45837   0.1038510000
H          H       0.51173   0.63078   0.45835   0.1044170000
C          C       0.69315   0.55642   0.45837  -0.0650400000
C          C       0.64009   0.61013   0.45834  -0.0521110000
H          H       0.71393   0.53562   0.45836   0.1036320000
H          H       0.61927   0.63086   0.45831   0.1048370000
C          C       0.86330   0.80665   0.45837  -0.0653480000
C          C       0.97014   0.86008   0.45833  -0.0512680000
H          H       0.82170   0.78572   0.45836   0.1037450000
H          H       0.51173   0.88106   0.45830   0.1043410000
C          C       0.94353   0.63669   0.45839  -0.0657610000
C          C       0.88989   0.52984   0.45838  -0.0508840000
H          H       0.96428   0.67829   0.45837   0.1038210000
H          H       0.86920   0.98826   0.45835   0.1044210000
C          C       0.80684   0.94356   0.37524  -0.0645770000
C          C       0.85990   0.88984   0.37500  -0.0520960000
H          H       0.78607   0.96437   0.37528   0.1033760000
H          H       0.88071   0.86911   0.37485   0.1048430000
C          C       0.63669   0.69334   0.37520  -0.0646070000
C          C       0.52986   0.63990   0.37510  -0.0525710000
H          H       0.67829   0.71428   0.37524   0.1032090000
H          H       0.98827   0.61892   0.37502   0.1046420000
C          C       0.55646   0.86330   0.37521  -0.0655020000
C          C       0.61010   0.97015   0.37483  -0.0517780000
H          H       0.53570   0.82170   0.37537   0.1036140000
H          H       0.63079   0.51173   0.37468   0.1052780000
C          C       0.55627   0.94372   0.37462  -0.2322650000
C          C       0.55632   0.61257   0.37499  -0.2307680000
C          C       0.88742   0.94367   0.37500  -0.2308380000
C          C       0.94372   0.55626   0.45840  -0.2313940000
C          C       0.94368   0.88742   0.45834  -0.2317030000
C          C       0.61257   0.55630   0.45834  -0.2316730000
B          B       0.52678   0.55347   0.54155   0.7116230000
O          O       0.69312   0.88641   0.54146  -0.5690630000
C          C       0.61029   0.72078   0.54158  -0.2424980000
B          B       0.94651   0.97321   0.54155   0.7116400000
O          O       0.61357   0.80686   0.54146  -0.5691320000
C          C       0.77920   0.88969   0.54158  -0.2425490000
B          B       0.52674   0.97324   0.54155   0.7128360000
O          O       0.69310   0.80689   0.54146  -0.5692150000
C          C       0.61033   0.88965   0.54157  -0.2429160000
B          B       0.97319   0.94651   0.62515   0.7119130000
O          O       0.80686   0.61357   0.62433  -0.5690320000
C          C       0.88969   0.77920   0.62465  -0.2426060000
B          B       0.55348   0.52679   0.62515   0.7119500000
O          O       0.88641   0.69312   0.62434  -0.5690650000
C          C       0.72078   0.61029   0.62465  -0.2425740000
B          B       0.97324   0.52674   0.62573   0.7109670000
O          O       0.80689   0.69309   0.62434  -0.5689950000
C          C       0.88965   0.61033   0.62460  -0.2423900000
B          B       0.71996   0.86008   0.54149   0.7184820000
B          B       0.63993   0.86006   0.54149   0.7192480000
B          B       0.63990   0.78003   0.54149   0.7184460000
B          B       0.78003   0.63990   0.62441   0.7180950000
B          B       0.86005   0.63993   0.62437   0.7194870000
B          B       0.86008   0.71996   0.62442   0.7181430000
O          O       0.55305   0.52652   0.54149  -0.5706160000
O          O       0.97350   0.52648   0.54152  -0.5700780000
O          O       0.97346   0.94694   0.54149  -0.5705670000
O          O       0.94693   0.97347   0.62589  -0.5697650000
O          O       0.52646   0.97352   0.62445  -0.5699920000
O          O       0.52651   0.55305   0.62590  -0.5698040000
C          C       0.55641   0.69315   0.54163  -0.0650280000
C          C       0.61013   0.64008   0.54166  -0.0520520000
H          H       0.53562   0.71392   0.54164   0.1035360000
H          H       0.63087   0.61927   0.54169   0.1049070000
C          C       0.80665   0.86330   0.54163  -0.0652400000
C          C       0.86008   0.97014   0.54167  -0.0513290000
H          H       0.78572   0.82170   0.54163   0.1038390000
H          H       0.88105   0.51172   0.54170   0.1042160000
C          C       0.63669   0.94353   0.54161  -0.0656940000
C          C       0.52985   0.88989   0.54162  -0.0510000000
H          H       0.67829   0.96428   0.54163   0.1039270000
H          H       0.98826   0.86920   0.54165   0.1043460000
C          C       0.94356   0.80684   0.62476  -0.0644880000
C          C       0.88984   0.85989   0.62500  -0.0521760000
H          H       0.96437   0.78607   0.62472   0.1035310000
H          H       0.86910   0.88070   0.62515   0.1046180000
C          C       0.69334   0.63669   0.62480  -0.0645230000
C          C       0.63990   0.52985   0.62490  -0.0524180000
H          H       0.71428   0.67829   0.62476   0.1030140000
H          H       0.61892   0.98827   0.62497   0.1046720000
C          C       0.86330   0.55646   0.62478  -0.0654360000
C          C       0.97014   0.61010   0.62517  -0.0517380000
H          H       0.82170   0.53570   0.62463   0.1035890000
H          H       0.51173   0.63078   0.62532   0.1053030000
C          C       0.69315   0.55642   0.62476  -0.0645420000
C          C       0.64009   0.61014   0.62500  -0.0521850000
H          H       0.71392   0.53562   0.62472   0.1034870000
H          H       0.61928   0.63088   0.62515   0.1046810000
C          C       0.86329   0.80665   0.62480  -0.0644930000
C          C       0.97013   0.86009   0.62490  -0.0525030000
H          H       0.82169   0.78571   0.62476   0.1030370000
H          H       0.51172   0.88106   0.62498   0.1046750000
C          C       0.94353   0.63669   0.62479  -0.0655540000
C          C       0.88988   0.52984   0.62517  -0.0518040000
H          H       0.96428   0.67829   0.62463   0.1035660000
H          H       0.86920   0.98826   0.62532   0.1053580000
C          C       0.80683   0.94357   0.54163  -0.0650620000
C          C       0.85990   0.88985   0.54166  -0.0520430000
H          H       0.78606   0.96437   0.54164   0.1035410000
H          H       0.88072   0.86912   0.54169   0.1049450000
C          C       0.63668   0.69333   0.54163  -0.0651980000
C          C       0.52985   0.63990   0.54167  -0.0513790000
H          H       0.67829   0.71427   0.54163   0.1038010000
H          H       0.98826   0.61893   0.54170   0.1042410000
C          C       0.55646   0.86329   0.54161  -0.0657150000
C          C       0.61010   0.97014   0.54162  -0.0510540000
H          H       0.53570   0.82169   0.54163   0.1038600000
H          H       0.63079   0.51172   0.54165   0.1043870000
C          C       0.55627   0.94373   0.54160  -0.2314960000
C          C       0.55630   0.61256   0.54166  -0.2316160000
C          C       0.88742   0.94368   0.54166  -0.2316490000
C          C       0.94371   0.55627   0.62538  -0.2321680000
C          C       0.94367   0.88742   0.62500  -0.2307330000
C          C       0.61257   0.55631   0.62500  -0.2307140000
B          B       0.02680   0.05348   0.70819   0.7119490000
O          O       0.19313   0.38642   0.70901  -0.5690780000
C          C       0.11030   0.22079   0.70869  -0.2426750000
B          B       0.44651   0.47319   0.70819   0.7119830000
O          O       0.11358   0.30686   0.70899  -0.5692330000
C          C       0.27920   0.38969   0.70868  -0.2426670000
B          B       0.02675   0.47324   0.70761   0.7111280000
O          O       0.19310   0.30690   0.70899  -0.5689190000
C          C       0.11033   0.38966   0.70873  -0.2424530000
B          B       0.47321   0.44651   0.79178   0.7117670000
O          O       0.30686   0.11357   0.79187  -0.5689490000
C          C       0.38969   0.27920   0.79175  -0.2423910000
B          B       0.05348   0.02678   0.79178   0.7117450000
O          O       0.38641   0.19312   0.79187  -0.5689900000
C          C       0.22078   0.11029   0.79175  -0.2423290000
B          B       0.47324   0.02674   0.79178   0.7126890000
O          O       0.30689   0.19310   0.79187  -0.5692960000
C          C       0.38965   0.11034   0.79176  -0.2430230000
B          B       0.21996   0.36009   0.70892   0.7182210000
B          B       0.13994   0.36006   0.70897   0.7194760000
B          B       0.13990   0.28003   0.70892   0.7182850000
B          B       0.28003   0.13991   0.79184   0.7183300000
B          B       0.36005   0.13994   0.79184   0.7193470000
B          B       0.36008   0.21996   0.79184   0.7183460000
O          O       0.05305   0.02652   0.70744  -0.5697780000
O          O       0.47352   0.02646   0.70889  -0.5700890000
O          O       0.47347   0.44694   0.70744  -0.5697810000
O          O       0.44694   0.47347   0.79184  -0.5707410000
O          O       0.02649   0.47351   0.79181  -0.5700190000
O          O       0.02653   0.05305   0.79184  -0.5706770000
C          C       0.05643   0.19315   0.70858  -0.0645650000
C          C       0.11015   0.14009   0.70833  -0.0520780000
H          H       0.03562   0.21391   0.70861   0.1034110000
H          H       0.13089   0.11928   0.70818   0.1047990000
C          C       0.30665   0.36330   0.70853  -0.0645030000
C          C       0.36009   0.47013   0.70843  -0.0525140000
H          H       0.28571   0.32170   0.70857   0.1030610000
H          H       0.38106   0.01171   0.70836   0.1046660000
C          C       0.13669   0.44353   0.70855  -0.0653510000
C          C       0.02984   0.38989   0.70816  -0.0518310000
H          H       0.17829   0.46428   0.70870   0.1037150000
H          H       0.48826   0.36921   0.70801   0.1052440000
C          C       0.44357   0.30684   0.79170  -0.0650540000
C          C       0.38985   0.35990   0.79167  -0.0521270000
H          H       0.46437   0.28606   0.79170   0.1037000000
H          H       0.36912   0.38072   0.79164   0.1047870000
C          C       0.19333   0.13669   0.79170  -0.0654390000
C          C       0.13991   0.02985   0.79166  -0.0513360000
H          H       0.21427   0.17828   0.79170   0.1038170000
H          H       0.11893   0.48826   0.79163   0.1043240000
C          C       0.36330   0.05646   0.79172  -0.0658510000
C          C       0.47014   0.11009   0.79171  -0.0509170000
H          H       0.32170   0.03571   0.79170   0.1038510000
H          H       0.01173   0.13079   0.79168   0.1044170000
C          C       0.19315   0.05642   0.79170  -0.0650400000
C          C       0.14008   0.11013   0.79167  -0.0521110000
H          H       0.21393   0.03562   0.79170   0.1036320000
H          H       0.11927   0.13087   0.79165   0.1048370000
C          C       0.36330   0.30666   0.79170  -0.0653480000
C          C       0.47014   0.36008   0.79166  -0.0512680000
H          H       0.32170   0.28572   0.79170   0.1037450000
H          H       0.01173   0.38106   0.79163   0.1043410000
C          C       0.44352   0.13669   0.79172  -0.0657610000
C          C       0.38989   0.02984   0.79171  -0.0508840000
H          H       0.46428   0.17830   0.79170   0.1038210000
H          H       0.36920   0.48827   0.79168   0.1044210000
C          C       0.30684   0.44356   0.70857  -0.0645770000
C          C       0.35990   0.38984   0.70833  -0.0520960000
H          H       0.28607   0.46437   0.70861   0.1033760000
H          H       0.38071   0.36911   0.70818   0.1048430000
C          C       0.13669   0.19334   0.70853  -0.0646070000
C          C       0.02985   0.13990   0.70843  -0.0525710000
H          H       0.17829   0.21428   0.70857   0.1032090000
H          H       0.48827   0.11892   0.70836   0.1046420000
C          C       0.05646   0.36330   0.70855  -0.0655020000
C          C       0.11010   0.47015   0.70817  -0.0517780000
H          H       0.03571   0.32170   0.70870   0.1036140000
H          H       0.13079   0.01173   0.70801   0.1052780000
C          C       0.05627   0.44372   0.70795  -0.2322650000
C          C       0.05632   0.11257   0.70833  -0.2307680000
C          C       0.38742   0.44367   0.70833  -0.2308380000
C          C       0.44372   0.05626   0.79173  -0.2313940000
C          C       0.44368   0.38743   0.79167  -0.2317030000
C          C       0.11257   0.05631   0.79167  -0.2316730000
B          B       0.02678   0.05348   0.87488   0.7116230000
O          O       0.19312   0.38641   0.87479  -0.5690630000
C          C       0.11029   0.22078   0.87492  -0.2424980000
B          B       0.44651   0.47321   0.87488   0.7116400000
O          O       0.11358   0.30686   0.87479  -0.5691320000
C          C       0.27920   0.38969   0.87492  -0.2425490000
B          B       0.02674   0.47324   0.87488   0.7128360000
O          O       0.19310   0.30689   0.87479  -0.5692150000
C          C       0.11033   0.38965   0.87491  -0.2429160000
B          B       0.47319   0.44651   0.95848   0.7119130000
O          O       0.30686   0.11357   0.95766  -0.5690320000
C          C       0.38969   0.27920   0.95798  -0.2426060000
B          B       0.05348   0.02679   0.95848   0.7119500000
O          O       0.38641   0.19312   0.95767  -0.5690650000
C          C       0.22078   0.11029   0.95798  -0.2425740000
B          B       0.47324   0.02674   0.95906   0.7109670000
O          O       0.30689   0.19309   0.95768  -0.5689950000
C          C       0.38965   0.11034   0.95793  -0.2423900000
B          B       0.21996   0.36008   0.87482   0.7184820000
B          B       0.13993   0.36005   0.87482   0.7192480000
B          B       0.13990   0.28003   0.87482   0.7184460000
B          B       0.28003   0.13990   0.95775   0.7180950000
B          B       0.36005   0.13994   0.95770   0.7194870000
B          B       0.36008   0.21996   0.95775   0.7181430000
O          O       0.05305   0.02653   0.87483  -0.5706160000
O          O       0.47350   0.02649   0.87485  -0.5700780000
O          O       0.47346   0.44694   0.87483  -0.5705670000
O          O       0.44693   0.47347   0.95923  -0.5697650000
O          O       0.02646   0.47352   0.95778  -0.5699920000
O          O       0.02651   0.05305   0.95923  -0.5698040000
C          C       0.05642   0.19315   0.87497  -0.0650280000
C          C       0.11013   0.14008   0.87500  -0.0520520000
H          H       0.03562   0.21392   0.87497   0.1035360000
H          H       0.13087   0.11927   0.87502   0.1049070000
C          C       0.30665   0.36330   0.87496  -0.0652400000
C          C       0.36008   0.47014   0.87500  -0.0513290000
H          H       0.28572   0.32171   0.87497   0.1038390000
H          H       0.38105   0.01172   0.87503   0.1042160000
C          C       0.13669   0.44353   0.87494  -0.0656940000
C          C       0.02985   0.38989   0.87496  -0.0510000000
H          H       0.17829   0.46428   0.87497   0.1039270000
H          H       0.48826   0.36921   0.87499   0.1043460000
C          C       0.44356   0.30684   0.95809  -0.0644880000
C          C       0.38984   0.35990   0.95833  -0.0521760000
H          H       0.46437   0.28607   0.95806   0.1035310000
H          H       0.36910   0.38070   0.95849   0.1046180000
C          C       0.19334   0.13669   0.95814  -0.0645230000
C          C       0.13989   0.02985   0.95823  -0.0524180000
H          H       0.21428   0.17829   0.95809   0.1030140000
H          H       0.11892   0.48827   0.95831   0.1046720000
C          C       0.36330   0.05646   0.95812  -0.0654360000
C          C       0.47014   0.11010   0.95850  -0.0517380000
H          H       0.32170   0.03571   0.95796   0.1035890000
H          H       0.01173   0.13079   0.95866   0.1053030000
C          C       0.19315   0.05643   0.95809  -0.0645420000
C          C       0.14009   0.11015   0.95833  -0.0521850000
H          H       0.21392   0.03562   0.95805   0.1034870000
H          H       0.11928   0.13088   0.95848   0.1046810000
C          C       0.36329   0.30665   0.95813  -0.0644930000
C          C       0.47013   0.36009   0.95823  -0.0525030000
H          H       0.32169   0.28571   0.95810   0.1030370000
H          H       0.01172   0.38106   0.95831   0.1046750000
C          C       0.44353   0.13669   0.95812  -0.0655540000
C          C       0.38988   0.02984   0.95850  -0.0518040000
H          H       0.46428   0.17829   0.95797   0.1035660000
H          H       0.36920   0.48826   0.95865   0.1053580000
C          C       0.30683   0.44357   0.87497  -0.0650620000
C          C       0.35990   0.38985   0.87500  -0.0520430000
H          H       0.28606   0.46437   0.87497   0.1035410000
H          H       0.38072   0.36912   0.87502   0.1049450000
C          C       0.13668   0.19334   0.87496  -0.0651980000
C          C       0.02985   0.13990   0.87500  -0.0513790000
H          H       0.17829   0.21427   0.87497   0.1038010000
H          H       0.48826   0.11893   0.87503   0.1042410000
C          C       0.05646   0.36329   0.87494  -0.0657150000
C          C       0.11010   0.47014   0.87496  -0.0510540000
H          H       0.03571   0.32169   0.87496   0.1038600000
H          H       0.13079   0.01172   0.87499   0.1043870000
C          C       0.05627   0.44372   0.87494  -0.2314960000
C          C       0.05630   0.11256   0.87499  -0.2316160000
C          C       0.38742   0.44368   0.87499  -0.2316490000
C          C       0.44371   0.05627   0.95872  -0.2321680000
C          C       0.44367   0.38742   0.95834  -0.2307330000
C          C       0.11257   0.05631   0.95834  -0.2307140000
B          B       0.52680   0.05348   0.70819   0.7119490000
O          O       0.69313   0.38642   0.70901  -0.5690780000
C          C       0.61030   0.22079   0.70869  -0.2426750000
B          B       0.94651   0.47319   0.70819   0.7119830000
O          O       0.61358   0.30686   0.70899  -0.5692330000
C          C       0.77920   0.38969   0.70868  -0.2426670000
B          B       0.52675   0.47324   0.70761   0.7111280000
O          O       0.69310   0.30690   0.70899  -0.5689190000
C          C       0.61033   0.38966   0.70873  -0.2424530000
B          B       0.97321   0.44651   0.79178   0.7117670000
O          O       0.80686   0.11357   0.79187  -0.5689490000
C          C       0.88969   0.27920   0.79175  -0.2423910000
B          B       0.55348   0.02678   0.79178   0.7117450000
O          O       0.88641   0.19312   0.79187  -0.5689900000
C          C       0.72078   0.11029   0.79175  -0.2423290000
B          B       0.97324   0.02674   0.79178   0.7126890000
O          O       0.80689   0.19310   0.79187  -0.5692960000
C          C       0.88965   0.11034   0.79176  -0.2430230000
B          B       0.71996   0.36009   0.70892   0.7182210000
B          B       0.63994   0.36006   0.70897   0.7194760000
B          B       0.63990   0.28003   0.70892   0.7182850000
B          B       0.78003   0.13991   0.79184   0.7183300000
B          B       0.86005   0.13994   0.79184   0.7193470000
B          B       0.86009   0.21996   0.79184   0.7183460000
O          O       0.55305   0.02652   0.70744  -0.5697780000
O          O       0.97352   0.02646   0.70889  -0.5700890000
O          O       0.97347   0.44694   0.70744  -0.5697810000
O          O       0.94694   0.47347   0.79184  -0.5707410000
O          O       0.52649   0.47351   0.79181  -0.5700190000
O          O       0.52653   0.05305   0.79184  -0.5706770000
C          C       0.55643   0.19315   0.70858  -0.0645650000
C          C       0.61015   0.14009   0.70833  -0.0520780000
H          H       0.53562   0.21391   0.70861   0.1034110000
H          H       0.63089   0.11928   0.70818   0.1047990000
C          C       0.80665   0.36330   0.70853  -0.0645030000
C          C       0.86009   0.47013   0.70843  -0.0525140000
H          H       0.78571   0.32170   0.70857   0.1030610000
H          H       0.88106   0.01171   0.70836   0.1046660000
C          C       0.63669   0.44353   0.70855  -0.0653510000
C          C       0.52984   0.38989   0.70816  -0.0518310000
H          H       0.67829   0.46428   0.70870   0.1037150000
H          H       0.98826   0.36921   0.70801   0.1052440000
C          C       0.94357   0.30684   0.79170  -0.0650540000
C          C       0.88985   0.35990   0.79167  -0.0521270000
H          H       0.96437   0.28606   0.79170   0.1037000000
H          H       0.86912   0.38072   0.79164   0.1047870000
C          C       0.69333   0.13669   0.79170  -0.0654390000
C          C       0.63991   0.02985   0.79166  -0.0513360000
H          H       0.71427   0.17828   0.79170   0.1038170000
H          H       0.61893   0.48826   0.79163   0.1043240000
C          C       0.86330   0.05646   0.79172  -0.0658510000
C          C       0.97014   0.11009   0.79171  -0.0509170000
H          H       0.82170   0.03571   0.79170   0.1038510000
H          H       0.51173   0.13079   0.79168   0.1044170000
C          C       0.69315   0.05642   0.79170  -0.0650400000
C          C       0.64009   0.11013   0.79167  -0.0521110000
H          H       0.71393   0.03562   0.79170   0.1036320000
H          H       0.61927   0.13087   0.79165   0.1048370000
C          C       0.86330   0.30666   0.79170  -0.0653480000
C          C       0.97014   0.36008   0.79166  -0.0512680000
H          H       0.82170   0.28572   0.79170   0.1037450000
H          H       0.51173   0.38106   0.79163   0.1043410000
C          C       0.94353   0.13669   0.79172  -0.0657610000
C          C       0.88989   0.02984   0.79171  -0.0508840000
H          H       0.96428   0.17830   0.79170   0.1038210000
H          H       0.86920   0.48827   0.79168   0.1044210000
C          C       0.80684   0.44356   0.70857  -0.0645770000
C          C       0.85990   0.38984   0.70833  -0.0520960000
H          H       0.78607   0.46437   0.70861   0.1033760000
H          H       0.88071   0.36911   0.70818   0.1048430000
C          C       0.63669   0.19334   0.70853  -0.0646070000
C          C       0.52986   0.13990   0.70843  -0.0525710000
H          H       0.67829   0.21428   0.70857   0.1032090000
H          H       0.98827   0.11892   0.70836   0.1046420000
C          C       0.55646   0.36330   0.70855  -0.0655020000
C          C       0.61010   0.47015   0.70817  -0.0517780000
H          H       0.53570   0.32170   0.70870   0.1036140000
H          H       0.63079   0.01173   0.70801   0.1052780000
C          C       0.55627   0.44372   0.70795  -0.2322650000
C          C       0.55632   0.11257   0.70833  -0.2307680000
C          C       0.88742   0.44367   0.70833  -0.2308380000
C          C       0.94372   0.05626   0.79173  -0.2313940000
C          C       0.94368   0.38743   0.79167  -0.2317030000
C          C       0.61257   0.05631   0.79167  -0.2316730000
B          B       0.52677   0.05348   0.87488   0.7116230000
O          O       0.69312   0.38641   0.87479  -0.5690630000
C          C       0.61029   0.22078   0.87492  -0.2424980000
B          B       0.94651   0.47321   0.87488   0.7116400000
O          O       0.61358   0.30686   0.87479  -0.5691320000
C          C       0.77920   0.38969   0.87492  -0.2425490000
B          B       0.52674   0.47324   0.87488   0.7128360000
O          O       0.69310   0.30689   0.87479  -0.5692150000
C          C       0.61033   0.38965   0.87491  -0.2429160000
B          B       0.97319   0.44651   0.95848   0.7119130000
O          O       0.80686   0.11357   0.95766  -0.5690320000
C          C       0.88969   0.27920   0.95798  -0.2426060000
B          B       0.55348   0.02679   0.95848   0.7119500000
O          O       0.88641   0.19312   0.95767  -0.5690650000
C          C       0.72078   0.11029   0.95798  -0.2425740000
B          B       0.97324   0.02674   0.95906   0.7109670000
O          O       0.80689   0.19309   0.95768  -0.5689950000
C          C       0.88965   0.11034   0.95793  -0.2423900000
B          B       0.71996   0.36008   0.87482   0.7184820000
B          B       0.63993   0.36005   0.87482   0.7192480000
B          B       0.63990   0.28003   0.87482   0.7184460000
B          B       0.78003   0.13990   0.95775   0.7180950000
B          B       0.86005   0.13994   0.95770   0.7194870000
B          B       0.86008   0.21996   0.95775   0.7181430000
O          O       0.55305   0.02653   0.87483  -0.5706160000
O          O       0.97350   0.02649   0.87485  -0.5700780000
O          O       0.97346   0.44694   0.87483  -0.5705670000
O          O       0.94693   0.47347   0.95923  -0.5697650000
O          O       0.52646   0.47352   0.95778  -0.5699920000
O          O       0.52651   0.05305   0.95923  -0.5698040000
C          C       0.55642   0.19315   0.87497  -0.0650280000
C          C       0.61013   0.14008   0.87500  -0.0520520000
H          H       0.53562   0.21392   0.87497   0.1035360000
H          H       0.63087   0.11927   0.87502   0.1049070000
C          C       0.80665   0.36330   0.87496  -0.0652400000
C          C       0.86008   0.47014   0.87500  -0.0513290000
H          H       0.78572   0.32171   0.87497   0.1038390000
H          H       0.88105   0.01172   0.87503   0.1042160000
C          C       0.63669   0.44353   0.87494  -0.0656940000
C          C       0.52985   0.38989   0.87496  -0.0510000000
H          H       0.67829   0.46428   0.87497   0.1039270000
H          H       0.98826   0.36921   0.87499   0.1043460000
C          C       0.94356   0.30684   0.95809  -0.0644880000
C          C       0.88984   0.35990   0.95833  -0.0521760000
H          H       0.96437   0.28607   0.95806   0.1035310000
H          H       0.86910   0.38070   0.95849   0.1046180000
C          C       0.69334   0.13669   0.95814  -0.0645230000
C          C       0.63990   0.02985   0.95823  -0.0524180000
H          H       0.71428   0.17829   0.95809   0.1030140000
H          H       0.61892   0.48827   0.95831   0.1046720000
C          C       0.86330   0.05646   0.95812  -0.0654360000
C          C       0.97014   0.11010   0.95850  -0.0517380000
H          H       0.82170   0.03571   0.95796   0.1035890000
H          H       0.51173   0.13079   0.95866   0.1053030000
C          C       0.69315   0.05643   0.95809  -0.0645420000
C          C       0.64009   0.11015   0.95833  -0.0521850000
H          H       0.71392   0.03562   0.95805   0.1034870000
H          H       0.61928   0.13088   0.95848   0.1046810000
C          C       0.86329   0.30665   0.95813  -0.0644930000
C          C       0.97013   0.36009   0.95823  -0.0525030000
H          H       0.82169   0.28571   0.95810   0.1030370000
H          H       0.51172   0.38106   0.95831   0.1046750000
C          C       0.94353   0.13669   0.95812  -0.0655540000
C          C       0.88988   0.02984   0.95850  -0.0518040000
H          H       0.96428   0.17829   0.95797   0.1035660000
H          H       0.86920   0.48826   0.95865   0.1053580000
C          C       0.80683   0.44357   0.87497  -0.0650620000
C          C       0.85990   0.38985   0.87500  -0.0520430000
H          H       0.78606   0.46437   0.87497   0.1035410000
H          H       0.88072   0.36912   0.87502   0.1049450000
C          C       0.63668   0.19334   0.87496  -0.0651980000
C          C       0.52985   0.13990   0.87500  -0.0513790000
H          H       0.67829   0.21427   0.87497   0.1038010000
H          H       0.98826   0.11893   0.87503   0.1042410000
C          C       0.55646   0.36329   0.87494  -0.0657150000
C          C       0.61010   0.47014   0.87496  -0.0510540000
H          H       0.53570   0.32169   0.87496   0.1038600000
H          H       0.63079   0.01172   0.87499   0.1043870000
C          C       0.55627   0.44372   0.87494  -0.2314960000
C          C       0.55630   0.11256   0.87499  -0.2316160000
C          C       0.88742   0.44368   0.87499  -0.2316490000
C          C       0.94371   0.05627   0.95872  -0.2321680000
C          C       0.94367   0.38742   0.95834  -0.2307330000
C          C       0.61257   0.05631   0.95834  -0.2307140000
B          B       0.02680   0.55348   0.70819   0.7119490000
O          O       0.19313   0.88641   0.70901  -0.5690780000
C          C       0.11030   0.72078   0.70869  -0.2426750000
B          B       0.44651   0.97319   0.70819   0.7119830000
O          O       0.11358   0.80686   0.70899  -0.5692330000
C          C       0.27920   0.88969   0.70868  -0.2426670000
B          B       0.02675   0.97324   0.70761   0.7111280000
O          O       0.19310   0.80689   0.70899  -0.5689190000
C          C       0.11033   0.88965   0.70873  -0.2424530000
B          B       0.47321   0.94651   0.79178   0.7117670000
O          O       0.30686   0.61357   0.79187  -0.5689490000
C          C       0.38969   0.77920   0.79175  -0.2423910000
B          B       0.05348   0.52677   0.79178   0.7117450000
O          O       0.38641   0.69312   0.79187  -0.5689900000
C          C       0.22078   0.61030   0.79175  -0.2423290000
B          B       0.47324   0.52674   0.79178   0.7126890000
O          O       0.30689   0.69310   0.79187  -0.5692960000
C          C       0.38965   0.61033   0.79176  -0.2430230000
B          B       0.21996   0.86009   0.70892   0.7182210000
B          B       0.13994   0.86005   0.70897   0.7194760000
B          B       0.13990   0.78003   0.70892   0.7182850000
B          B       0.28003   0.63990   0.79184   0.7183300000
B          B       0.36005   0.63993   0.79184   0.7193470000
B          B       0.36008   0.71996   0.79184   0.7183460000
O          O       0.05305   0.52651   0.70744  -0.5697780000
O          O       0.47352   0.52646   0.70889  -0.5700890000
O          O       0.47347   0.94694   0.70744  -0.5697810000
O          O       0.44694   0.97346   0.79184  -0.5707410000
O          O       0.02649   0.97350   0.79181  -0.5700190000
O          O       0.02653   0.55305   0.79184  -0.5706770000
C          C       0.05643   0.69315   0.70858  -0.0645650000
C          C       0.11015   0.64009   0.70833  -0.0520780000
H          H       0.03562   0.71391   0.70861   0.1034110000
H          H       0.13089   0.61928   0.70818   0.1047990000
C          C       0.30665   0.86330   0.70853  -0.0645030000
C          C       0.36008   0.97013   0.70843  -0.0525140000
H          H       0.28571   0.82170   0.70857   0.1030610000
H          H       0.38106   0.51172   0.70836   0.1046660000
C          C       0.13669   0.94353   0.70855  -0.0653510000
C          C       0.02984   0.88989   0.70816  -0.0518310000
H          H       0.17829   0.96428   0.70870   0.1037150000
H          H       0.48826   0.86920   0.70801   0.1052440000
C          C       0.44357   0.80684   0.79170  -0.0650540000
C          C       0.38985   0.85990   0.79167  -0.0521270000
H          H       0.46437   0.78606   0.79170   0.1037000000
H          H       0.36912   0.88072   0.79164   0.1047870000
C          C       0.19333   0.63668   0.79170  -0.0654390000
C          C       0.13991   0.52985   0.79166  -0.0513360000
H          H       0.21427   0.67828   0.79170   0.1038170000
H          H       0.11893   0.98826   0.79163   0.1043240000
C          C       0.36330   0.55646   0.79172  -0.0658510000
C          C       0.47014   0.61009   0.79171  -0.0509170000
H          H       0.32170   0.53571   0.79170   0.1038510000
H          H       0.01173   0.63078   0.79168   0.1044170000
C          C       0.19315   0.55642   0.79170  -0.0650400000
C          C       0.14009   0.61013   0.79167  -0.0521110000
H          H       0.21393   0.53562   0.79170   0.1036320000
H          H       0.11927   0.63086   0.79165   0.1048370000
C          C       0.36330   0.80665   0.79170  -0.0653480000
C          C       0.47014   0.86008   0.79166  -0.0512680000
H          H       0.32170   0.78572   0.79170   0.1037450000
H          H       0.01172   0.88106   0.79163   0.1043410000
C          C       0.44353   0.63669   0.79172  -0.0657610000
C          C       0.38989   0.52984   0.79171  -0.0508840000
H          H       0.46428   0.67829   0.79170   0.1038210000
H          H       0.36920   0.98826   0.79168   0.1044210000
C          C       0.30684   0.94356   0.70857  -0.0645770000
C          C       0.35990   0.88984   0.70833  -0.0520960000
H          H       0.28607   0.96437   0.70861   0.1033760000
H          H       0.38071   0.86911   0.70818   0.1048430000
C          C       0.13669   0.69334   0.70853  -0.0646070000
C          C       0.02985   0.63990   0.70843  -0.0525710000
H          H       0.17829   0.71428   0.70857   0.1032090000
H          H       0.48827   0.61892   0.70836   0.1046420000
C          C       0.05646   0.86330   0.70855  -0.0655020000
C          C       0.11010   0.97015   0.70817  -0.0517780000
H          H       0.03571   0.82170   0.70870   0.1036140000
H          H       0.13079   0.51173   0.70801   0.1052780000
C          C       0.05627   0.94372   0.70795  -0.2322650000
C          C       0.05632   0.61257   0.70833  -0.2307680000
C          C       0.38742   0.94367   0.70833  -0.2308380000
C          C       0.44372   0.55626   0.79173  -0.2313940000
C          C       0.44368   0.88743   0.79167  -0.2317030000
C          C       0.11257   0.55631   0.79167  -0.2316730000
B          B       0.02678   0.55347   0.87488   0.7116230000
O          O       0.19312   0.88641   0.87479  -0.5690630000
C          C       0.11029   0.72078   0.87492  -0.2424980000
B          B       0.44651   0.97321   0.87488   0.7116400000
O          O       0.11358   0.80686   0.87479  -0.5691320000
C          C       0.27920   0.88969   0.87492  -0.2425490000
B          B       0.02674   0.97325   0.87488   0.7128360000
O          O       0.19310   0.80689   0.87479  -0.5692150000
C          C       0.11033   0.88965   0.87491  -0.2429160000
B          B       0.47319   0.94651   0.95848   0.7119130000
O          O       0.30686   0.61357   0.95766  -0.5690320000
C          C       0.38969   0.77920   0.95798  -0.2426060000
B          B       0.05348   0.52680   0.95848   0.7119500000
O          O       0.38641   0.69312   0.95767  -0.5690650000
C          C       0.22078   0.61029   0.95798  -0.2425740000
B          B       0.47324   0.52675   0.95906   0.7109670000
O          O       0.30689   0.69309   0.95768  -0.5689950000
C          C       0.38965   0.61033   0.95793  -0.2423900000
B          B       0.21996   0.86008   0.87482   0.7184820000
B          B       0.13993   0.86005   0.87482   0.7192480000
B          B       0.13990   0.78003   0.87482   0.7184460000
B          B       0.28002   0.63990   0.95775   0.7180950000
B          B       0.36005   0.63993   0.95770   0.7194870000
B          B       0.36008   0.71995   0.95775   0.7181430000
O          O       0.05305   0.52652   0.87483  -0.5706160000
O          O       0.47350   0.52648   0.87485  -0.5700780000
O          O       0.47346   0.94694   0.87483  -0.5705670000
O          O       0.44693   0.97347   0.95923  -0.5697650000
O          O       0.02646   0.97352   0.95778  -0.5699920000
O          O       0.02651   0.55305   0.95923  -0.5698040000
C          C       0.05641   0.69315   0.87497  -0.0650280000
C          C       0.11013   0.64008   0.87500  -0.0520520000
H          H       0.03562   0.71392   0.87497   0.1035360000
H          H       0.13087   0.61927   0.87502   0.1049070000
C          C       0.30665   0.86330   0.87496  -0.0652400000
C          C       0.36008   0.97014   0.87500  -0.0513290000
H          H       0.28572   0.82170   0.87497   0.1038390000
H          H       0.38105   0.51172   0.87503   0.1042160000
C          C       0.13669   0.94353   0.87494  -0.0656940000
C          C       0.02984   0.88989   0.87496  -0.0510000000
H          H       0.17829   0.96428   0.87497   0.1039270000
H          H       0.48826   0.86920   0.87499   0.1043460000
C          C       0.44356   0.80684   0.95809  -0.0644880000
C          C       0.38984   0.85989   0.95833  -0.0521760000
H          H       0.46437   0.78607   0.95806   0.1035310000
H          H       0.36910   0.88070   0.95849   0.1046180000
C          C       0.19334   0.63669   0.95814  -0.0645230000
C          C       0.13990   0.52985   0.95823  -0.0524180000
H          H       0.21427   0.67829   0.95809   0.1030140000
H          H       0.11892   0.98827   0.95831   0.1046720000
C          C       0.36329   0.55646   0.95812  -0.0654360000
C          C       0.47014   0.61010   0.95850  -0.0517380000
H          H       0.32170   0.53570   0.95796   0.1035890000
H          H       0.01173   0.63078   0.95866   0.1053030000
C          C       0.19315   0.55642   0.95809  -0.0645420000
C          C       0.14009   0.61014   0.95833  -0.0521850000
H          H       0.21392   0.53562   0.95805   0.1034870000
H          H       0.11928   0.63088   0.95848   0.1046810000
C          C       0.36329   0.80665   0.95813  -0.0644930000
C          C       0.47013   0.86009   0.95823  -0.0525030000
H          H       0.32169   0.78571   0.95810   0.1030370000
H          H       0.01171   0.88106   0.95831   0.1046750000
C          C       0.44352   0.63669   0.95812  -0.0655540000
C          C       0.38988   0.52984   0.95850  -0.0518040000
H          H       0.46428   0.67829   0.95797   0.1035660000
H          H       0.36920   0.98826   0.95865   0.1053580000
C          C       0.30683   0.94357   0.87497  -0.0650620000
C          C       0.35990   0.88985   0.87500  -0.0520430000
H          H       0.28606   0.96436   0.87497   0.1035410000
H          H       0.38072   0.86912   0.87502   0.1049450000
C          C       0.13668   0.69333   0.87496  -0.0651980000
C          C       0.02984   0.63990   0.87500  -0.0513790000
H          H       0.17828   0.71427   0.87497   0.1038010000
H          H       0.48826   0.61893   0.87503   0.1042410000
C          C       0.05646   0.86329   0.87494  -0.0657150000
C          C       0.11009   0.97014   0.87496  -0.0510540000
H          H       0.03570   0.82169   0.87496   0.1038600000
H          H       0.13079   0.51172   0.87499   0.1043870000
C          C       0.05627   0.94372   0.87494  -0.2314960000
C          C       0.05630   0.61256   0.87499  -0.2316160000
C          C       0.38742   0.94368   0.87499  -0.2316490000
C          C       0.44371   0.55627   0.95872  -0.2321680000
C          C       0.44367   0.88742   0.95834  -0.2307330000
C          C       0.11257   0.55631   0.95834  -0.2307140000
B          B       0.52680   0.55348   0.70819   0.7119490000
O          O       0.69313   0.88641   0.70901  -0.5690780000
C          C       0.61030   0.72078   0.70869  -0.2426750000
B          B       0.94651   0.97319   0.70819   0.7119830000
O          O       0.61358   0.80686   0.70899  -0.5692330000
C          C       0.77920   0.88969   0.70868  -0.2426670000
B          B       0.52675   0.97324   0.70761   0.7111280000
O          O       0.69310   0.80689   0.70899  -0.5689190000
C          C       0.61033   0.88965   0.70873  -0.2424530000
B          B       0.97321   0.94651   0.79178   0.7117670000
O          O       0.80686   0.61357   0.79187  -0.5689490000
C          C       0.88969   0.77920   0.79175  -0.2423910000
B          B       0.55348   0.52677   0.79178   0.7117450000
O          O       0.88641   0.69312   0.79187  -0.5689900000
C          C       0.72078   0.61030   0.79175  -0.2423290000
B          B       0.97324   0.52674   0.79178   0.7126890000
O          O       0.80689   0.69310   0.79187  -0.5692960000
C          C       0.88965   0.61033   0.79176  -0.2430230000
B          B       0.71996   0.86009   0.70892   0.7182210000
B          B       0.63994   0.86005   0.70897   0.7194760000
B          B       0.63990   0.78003   0.70892   0.7182850000
B          B       0.78003   0.63990   0.79184   0.7183300000
B          B       0.86005   0.63993   0.79184   0.7193470000
B          B       0.86009   0.71996   0.79184   0.7183460000
O          O       0.55305   0.52651   0.70744  -0.5697780000
O          O       0.97352   0.52646   0.70889  -0.5700890000
O          O       0.97347   0.94694   0.70744  -0.5697810000
O          O       0.94694   0.97346   0.79184  -0.5707410000
O          O       0.52649   0.97350   0.79181  -0.5700190000
O          O       0.52653   0.55305   0.79184  -0.5706770000
C          C       0.55643   0.69315   0.70858  -0.0645650000
C          C       0.61015   0.64009   0.70833  -0.0520780000
H          H       0.53562   0.71391   0.70861   0.1034110000
H          H       0.63089   0.61928   0.70818   0.1047990000
C          C       0.80665   0.86330   0.70853  -0.0645030000
C          C       0.86009   0.97013   0.70843  -0.0525140000
H          H       0.78571   0.82170   0.70857   0.1030610000
H          H       0.88106   0.51172   0.70836   0.1046660000
C          C       0.63669   0.94353   0.70855  -0.0653510000
C          C       0.52984   0.88989   0.70816  -0.0518310000
H          H       0.67829   0.96428   0.70870   0.1037150000
H          H       0.98826   0.86920   0.70801   0.1052440000
C          C       0.94357   0.80684   0.79170  -0.0650540000
C          C       0.88985   0.85990   0.79167  -0.0521270000
H          H       0.96437   0.78606   0.79170   0.1037000000
H          H       0.86912   0.88072   0.79164   0.1047870000
C          C       0.69333   0.63668   0.79170  -0.0654390000
C          C       0.63991   0.52985   0.79166  -0.0513360000
H          H       0.71427   0.67828   0.79170   0.1038170000
H          H       0.61893   0.98826   0.79163   0.1043240000
C          C       0.86330   0.55646   0.79172  -0.0658510000
C          C       0.97014   0.61009   0.79171  -0.0509170000
H          H       0.82170   0.53571   0.79170   0.1038510000
H          H       0.51173   0.63078   0.79168   0.1044170000
C          C       0.69315   0.55642   0.79170  -0.0650400000
C          C       0.64009   0.61013   0.79167  -0.0521110000
H          H       0.71393   0.53562   0.79170   0.1036320000
H          H       0.61927   0.63086   0.79165   0.1048370000
C          C       0.86330   0.80665   0.79170  -0.0653480000
C          C       0.97014   0.86008   0.79166  -0.0512680000
H          H       0.82170   0.78572   0.79170   0.1037450000
H          H       0.51173   0.88106   0.79163   0.1043410000
C          C       0.94353   0.63669   0.79172  -0.0657610000
C          C       0.88989   0.52984   0.79171  -0.0508840000
H          H       0.96428   0.67829   0.79170   0.1038210000
H          H       0.86920   0.98826   0.79168   0.1044210000
C          C       0.80684   0.94356   0.70857  -0.0645770000
C          C       0.85990   0.88984   0.70833  -0.0520960000
H          H       0.78607   0.96437   0.70861   0.1033760000
H          H       0.88071   0.86911   0.70818   0.1048430000
C          C       0.63669   0.69334   0.70853  -0.0646070000
C          C       0.52986   0.63990   0.70843  -0.0525710000
H          H       0.67829   0.71428   0.70857   0.1032090000
H          H       0.98827   0.61892   0.70836   0.1046420000
C          C       0.55646   0.86330   0.70855  -0.0655020000
C          C       0.61010   0.97015   0.70817  -0.0517780000
H          H       0.53570   0.82170   0.70870   0.1036140000
H          H       0.63079   0.51173   0.70801   0.1052780000
C          C       0.55627   0.94372   0.70795  -0.2322650000
C          C       0.55632   0.61257   0.70833  -0.2307680000
C          C       0.88741   0.94367   0.70833  -0.2308380000
C          C       0.94372   0.55626   0.79173  -0.2313940000
C          C       0.94368   0.88743   0.79167  -0.2317030000
C          C       0.61257   0.55631   0.79167  -0.2316730000
B          B       0.52677   0.55347   0.87488   0.7116230000
O          O       0.69312   0.88641   0.87479  -0.5690630000
C          C       0.61029   0.72078   0.87492  -0.2424980000
B          B       0.94651   0.97321   0.87488   0.7116400000
O          O       0.61358   0.80686   0.87479  -0.5691320000
C          C       0.77920   0.88969   0.87492  -0.2425490000
B          B       0.52674   0.97325   0.87488   0.7128360000
O          O       0.69310   0.80689   0.87479  -0.5692150000
C          C       0.61033   0.88965   0.87491  -0.2429160000
B          B       0.97319   0.94651   0.95848   0.7119130000
O          O       0.80686   0.61357   0.95766  -0.5690320000
C          C       0.88969   0.77920   0.95798  -0.2426060000
B          B       0.55348   0.52680   0.95848   0.7119500000
O          O       0.88641   0.69312   0.95767  -0.5690650000
C          C       0.72078   0.61029   0.95798  -0.2425740000
B          B       0.97324   0.52675   0.95906   0.7109670000
O          O       0.80689   0.69309   0.95768  -0.5689950000
C          C       0.88965   0.61033   0.95793  -0.2423900000
B          B       0.71996   0.86008   0.87482   0.7184820000
B          B       0.63993   0.86005   0.87482   0.7192480000
B          B       0.63990   0.78003   0.87482   0.7184460000
B          B       0.78002   0.63990   0.95775   0.7180950000
B          B       0.86005   0.63993   0.95770   0.7194870000
B          B       0.86008   0.71995   0.95775   0.7181430000
O          O       0.55305   0.52652   0.87483  -0.5706160000
O          O       0.97350   0.52648   0.87485  -0.5700780000
O          O       0.97346   0.94694   0.87483  -0.5705670000
O          O       0.94693   0.97347   0.95923  -0.5697650000
O          O       0.52646   0.97352   0.95778  -0.5699920000
O          O       0.52651   0.55305   0.95923  -0.5698040000
C          C       0.55641   0.69315   0.87497  -0.0650280000
C          C       0.61013   0.64008   0.87500  -0.0520520000
H          H       0.53562   0.71392   0.87497   0.1035360000
H          H       0.63087   0.61927   0.87502   0.1049070000
C          C       0.80665   0.86330   0.87496  -0.0652400000
C          C       0.86008   0.97014   0.87500  -0.0513290000
H          H       0.78572   0.82170   0.87497   0.1038390000
H          H       0.88105   0.51172   0.87503   0.1042160000
C          C       0.63669   0.94353   0.87494  -0.0656940000
C          C       0.52985   0.88989   0.87496  -0.0510000000
H          H       0.67829   0.96428   0.87497   0.1039270000
H          H       0.98826   0.86920   0.87499   0.1043460000
C          C       0.94356   0.80684   0.95809  -0.0644880000
C          C       0.88984   0.85989   0.95833  -0.0521760000
H          H       0.96437   0.78607   0.95806   0.1035310000
H          H       0.86910   0.88070   0.95849   0.1046180000
C          C       0.69334   0.63669   0.95814  -0.0645230000
C          C       0.63990   0.52985   0.95823  -0.0524180000
H          H       0.71427   0.67829   0.95809   0.1030140000
H          H       0.61892   0.98827   0.95831   0.1046720000
C          C       0.86330   0.55646   0.95812  -0.0654360000
C          C       0.97014   0.61010   0.95850  -0.0517380000
H          H       0.82170   0.53570   0.95796   0.1035890000
H          H       0.51173   0.63078   0.95866   0.1053030000
C          C       0.69315   0.55642   0.95809  -0.0645420000
C          C       0.64009   0.61014   0.95833  -0.0521850000
H          H       0.71392   0.53562   0.95805   0.1034870000
H          H       0.61928   0.63088   0.95848   0.1046810000
C          C       0.86329   0.80665   0.95813  -0.0644930000
C          C       0.97013   0.86009   0.95823  -0.0525030000
H          H       0.82169   0.78571   0.95810   0.1030370000
H          H       0.51171   0.88106   0.95831   0.1046750000
C          C       0.94353   0.63669   0.95812  -0.0655540000
C          C       0.88988   0.52984   0.95850  -0.0518040000
H          H       0.96428   0.67829   0.95797   0.1035660000
H          H       0.86920   0.98826   0.95865   0.1053580000
C          C       0.80683   0.94357   0.87497  -0.0650620000
C          C       0.85990   0.88985   0.87500  -0.0520430000
H          H       0.78606   0.96436   0.87497   0.1035410000
H          H       0.88072   0.86912   0.87502   0.1049450000
C          C       0.63668   0.69333   0.87496  -0.0651980000
C          C       0.52985   0.63990   0.87500  -0.0513790000
H          H       0.67829   0.71427   0.87497   0.1038010000
H          H       0.98826   0.61893   0.87503   0.1042410000
C          C       0.55646   0.86329   0.87494  -0.0657150000
C          C       0.61010   0.97014   0.87496  -0.0510540000
H          H       0.53571   0.82169   0.87496   0.1038600000
H          H       0.63079   0.51172   0.87499   0.1043870000
C          C       0.55627   0.94372   0.87494  -0.2314960000
C          C       0.55630   0.61256   0.87499  -0.2316160000
C          C       0.88742   0.94368   0.87499  -0.2316490000
C          C       0.94371   0.55627   0.95872  -0.2321680000
C          C       0.94367   0.88742   0.95834  -0.2307330000
C          C       0.61257   0.55631   0.95834  -0.2307140000
