data_crystal
 
_cell_length_a    42.35400
_cell_length_b    46.70400
_cell_length_c    38.99800
_cell_angle_alpha 80.91200
_cell_angle_beta  74.19300
_cell_angle_gamma 62.82000
 
_symmetry_space_group_name_Hall 'P 1'
_symmetry_space_group_name_H-M  'P 1'
 
loop_
_symmetry_equiv_pos_as_xyz
 'x,y,z' 
 
loop_
_atom_site_label
_atom_site_type_symbol
_atom_site_fract_x
_atom_site_fract_y
_atom_site_fract_z
_atom_site_charge
Zn         Zn      0.17483   0.24284   0.42111   0.4606970000
Zn         Zn      0.15205   0.22869   0.51601   0.6825810000
Zn         Zn      0.23320   0.16563   0.38116   0.6818950000
Zn         Zn      0.22234   0.29268   0.39848   0.6823580000
Zn         Zn      0.09354   0.28269   0.38804   0.6824280000
Zn         Zn      0.37151   0.49283   0.92106   0.4612460000
Zn         Zn      0.36195   0.47869   0.01605   0.6838740000
Zn         Zn      0.41124   0.41560   0.88111   0.6809460000
Zn         Zn      0.28564   0.04283   0.89860   0.6812200000
Zn         Zn      0.43020   0.03260   0.88806   0.6818890000
H          H       0.08337   0.24301   0.32868   0.1366270000
H          H       0.09946   0.19675   0.29173   0.1059360000
H          H       0.07282   0.35681   0.34515   0.1279950000
H          H       0.10509   0.13459   0.89247   0.1255560000
H          H       0.15681   0.14718   0.29024   0.1082170000
H          H       0.08474   0.40410   0.31799   0.1116650000
H          H       0.20079   0.14100   0.32569   0.1323310000
H          H       0.14009   0.40789   0.32117   0.1109880000
H          H       0.22344   0.09115   0.80391   0.1190270000
H          H       0.18652   0.36447   0.35164   0.1337110000
H          H       0.36606   0.22037   0.31069   0.1079260000
H          H       0.16591   0.12265   0.78318   0.1108830000
H          H       0.07360   0.22111   0.78936   0.0910530000
H          H       0.05165   0.20952   0.83151   0.0854670000
H          H       0.25898   0.06541   0.49339   0.1108760000
H          H       0.22202   0.09207   0.55001   0.1046300000
H          H       0.03401   0.20338   0.74299   0.0907150000
H          H       0.06883   0.16303   0.73640   0.0754960000
H          H       0.16361   0.10246   0.91278   0.1100350000
H          H       0.03432   0.16542   0.83612   0.0856630000
H          H       0.00422   0.18927   0.80738   0.0897250000
H          H       0.08316   0.18692   0.61716   0.1184170000
H          H       0.11886   0.16559   0.77767   0.0801980000
H          H       0.10575   0.13398   0.77891   0.0739880000
H          H       0.17765   0.26352   0.56766   0.1358940000
H          H       0.04789   0.25798   0.83522   0.1207220000
H          H       0.00741   0.05983   0.79982   0.1199500000
H          H       0.03920   0.09404   0.76807   0.1211000000
H          H       0.49125   0.15394   0.85917   0.1228370000
H          H       0.06278   0.18105   0.68274   0.1083950000
H          H       0.01639   0.31183   0.86189   0.1230640000
H          H       0.14995   0.22897   0.63080   0.1084170000
H          H       0.23792   0.32084   0.53041   0.0997260000
H          H       0.20635   0.29638   0.57948   0.0955560000
H          H       0.45491   0.28109   0.79242   0.1302580000
H          H       0.18322   0.15182   0.55127   0.1295900000
H          H       0.31887   0.15233   0.33316   0.1372220000
H          H       0.45959   0.12018   0.88961   0.1231040000
H          H       0.37125   0.16635   0.30542   0.1082410000
H          H       0.30817   0.26339   0.34329   0.1293450000
H          H       0.42392   0.33542   0.81924   0.1180160000
H          H       0.25938   0.09682   0.43522   0.1318010000
H          H       0.24155   0.31468   0.46645   0.1381950000
H          H       0.13121   0.22182   0.69727   0.1246720000
H          H       0.01163   0.29810   0.44674   0.1371320000
H          H       0.47059   0.29589   0.50600   0.1138930000
H          H       0.49517   0.27184   0.55957   0.1108980000
H          H       0.06208   0.24803   0.55660   0.1336620000
H          H       0.00991   0.49261   0.82898   0.1390460000
H          H       0.05892   0.44626   0.79218   0.1062320000
H          H       0.39753   0.10677   0.84536   0.1274490000
H          H       0.31404   0.38360   0.39206   0.1269540000
H          H       0.05206   0.39680   0.79063   0.1075390000
H          H       0.35146   0.15424   0.81862   0.1113520000
H          H       0.49630   0.39085   0.82589   0.1325630000
H          H       0.29053   0.15824   0.82216   0.1119870000
H          H       0.28353   0.34138   0.30264   0.1200160000
H          H       0.27256   0.11479   0.85259   0.1327640000
H          H       0.25855   0.47120   0.81020   0.1082890000
H          H       0.31936   0.37325   0.28248   0.1111290000
H          H       0.30948   0.47128   0.28970   0.0916260000
H          H       0.32225   0.45960   0.33171   0.0822480000
H          H       0.43205   0.31520   0.99293   0.1107320000
H          H       0.41409   0.34173   0.04957   0.1042340000
H          H       0.39003   0.45365   0.24300   0.0907020000
H          H       0.39938   0.41322   0.23648   0.0745230000
H          H       0.27812   0.35103   0.41174   0.1105680000
H          H       0.38147   0.41523   0.33612   0.0848760000
H          H       0.40181   0.43934   0.30771   0.0890710000
H          H       0.42096   0.43691   0.11739   0.1173930000
H          H       0.32600   0.41590   0.27756   0.0792990000
H          H       0.37030   0.38421   0.27867   0.0739430000
H          H       0.27539   0.01353   0.06780   0.1368670000
H          H       0.27562   0.00803   0.33624   0.1202700000
H          H       0.03327   0.31020   0.29963   0.1197660000
H          H       0.48300   0.34445   0.26783   0.1218750000
H          H       0.42428   0.40369   0.35942   0.1225710000
H          H       0.41418   0.43091   0.18298   0.1074950000
H          H       0.24008   0.06174   0.36333   0.1203350000
H          H       0.30496   0.47973   0.13073   0.1077390000
H          H       0.17572   0.07042   0.03102   0.1000590000
H          H       0.20763   0.04615   0.07991   0.0953080000
H          H       0.36671   0.03101   0.29192   0.1295220000
H          H       0.39136   0.40157   0.05105   0.1295270000
H          H       0.36275   0.40271   0.83289   0.1382420000
H          H       0.47462   0.36991   0.38991   0.1226000000
H          H       0.31021   0.41707   0.80494   0.1090490000
H          H       0.25694   0.01403   0.84302   0.1291120000
H          H       0.33010   0.08521   0.31909   0.1197060000
H          H       0.42821   0.34684   0.93493   0.1325220000
H          H       0.21014   0.06439   0.96697   0.1384430000
H          H       0.29737   0.47227   0.19721   0.1246230000
H          H       0.46686   0.04820   0.94677   0.1362020000
H          H       0.48022   0.04613   0.00608   0.1133370000
H          H       0.45304   0.02203   0.05963   0.1119630000
H          H       0.41176   0.49806   0.05658   0.1332110000
C          C       0.06068   0.18156   0.78734   0.0567070000
C          C       0.10847   0.22096   0.32771  -0.1607840000
C          C       0.15491   0.33667   0.36591   0.1275680000
C          C       0.11791   0.19524   0.30738  -0.0922790000
C          C       0.12341   0.33427   0.36359   0.1248190000
C          C       0.09721   0.35855   0.34640  -0.1541310000
C          C       0.13127   0.12510   0.87347  -0.2097020000
C          C       0.15101   0.16671   0.30644  -0.0935040000
C          C       0.10413   0.38469   0.33161  -0.0890700000
C          C       0.17586   0.16298   0.32564  -0.1512730000
C          C       0.13352   0.21737   0.34741   0.1312410000
C          C       0.13595   0.38694   0.33358  -0.0878510000
C          C       0.19736   0.10094   0.82302  -0.0667150000
C          C       0.16179   0.36324   0.35061  -0.1527770000
C          C       0.34271   0.21532   0.32318  -0.0898310000
C          C       0.16505   0.11870   0.81153  -0.2360000000
C          C       0.05234   0.21320   0.80282  -0.0352040000
C          C       0.24310   0.09144   0.49278  -0.0912640000
C          C       0.22177   0.10683   0.52543  -0.0894890000
C          C       0.46832   0.32687   0.84236  -0.0737850000
C          C       0.06105   0.18621   0.74740  -0.0330790000
C          C       0.16365   0.10727   0.88456  -0.0720390000
C          C       0.28203   0.23111   0.35741   0.1237290000
C          C       0.19314   0.27164   0.51027   0.1238150000
C          C       0.09598   0.20118   0.69403   0.2559170000
C          C       0.03170   0.17045   0.80829  -0.0392000000
C          C       0.09331   0.19472   0.63494  -0.0650050000
C          C       0.13193   0.13117   0.83690   0.2639680000
C          C       0.09878   0.15637   0.79124  -0.0347960000
C          C       0.00299   0.26620   0.81230   0.2601310000
C          C       0.19134   0.27470   0.54619  -0.1514660000
C          C       0.11761   0.20839   0.61995  -0.0742390000
C          C       0.12842   0.21213   0.58058   0.5457680000
C          C       0.21087   0.28610   0.48202   0.1267930000
C          C       0.02078   0.27459   0.83171  -0.2418770000
C          C       0.28498   0.20011   0.35428   0.1247420000
C          C       0.46231   0.06838   0.86592   0.5387790000
C          C       0.45071   0.35870   0.85879   0.5403300000
C          C       0.00450   0.08028   0.81253  -0.0736620000
C          C       0.48203   0.08770   0.84696  -0.0703740000
C          C       0.02228   0.09899   0.79496  -0.2155420000
C          C       0.49531   0.13332   0.84601  -0.2345500000
C          C       0.23211   0.07597   0.87036   0.5403960000
C          C       0.08207   0.19127   0.67184  -0.2320380000
C          C       0.00324   0.30480   0.84661  -0.0708960000
C          C       0.20180   0.15746   0.49397   0.1258370000
C          C       0.13108   0.21841   0.64262  -0.0705870000
C          C       0.22565   0.30700   0.52388  -0.0842330000
C          C       0.20760   0.29275   0.55221  -0.0842570000
C          C       0.46804   0.28818   0.80765  -0.2164310000
C          C       0.20062   0.13984   0.52672  -0.1533010000
C          C       0.31712   0.17597   0.33530  -0.1560910000
C          C       0.47748   0.11443   0.86320  -0.0632030000
C          C       0.34569   0.18418   0.32014  -0.0905650000
C          C       0.31106   0.23930   0.34151  -0.1519460000
C          C       0.19710   0.09516   0.85942  -0.0685490000
C          C       0.45098   0.31822   0.82256  -0.0763590000
C          C       0.24387   0.10853   0.46034  -0.1478690000
C          C       0.16664   0.18905   0.34625   0.1252560000
C          C       0.22282   0.14214   0.46142   0.1260740000
C          C       0.22784   0.30394   0.48844  -0.1532540000
C          C       0.01814   0.12531   0.81194   0.2576270000
C          C       0.12063   0.21466   0.67936  -0.2152830000
C          C       0.07391   0.26032   0.49982   0.1242870000
C          C       0.05979   0.27370   0.46895   0.1257890000
C          C       0.02216   0.28717   0.47044  -0.1582520000
C          C      -0.00017   0.28614   0.50352  -0.0814680000
C          C       0.01401   0.27231   0.53440  -0.0906420000
C          C       0.05094   0.25928   0.53331  -0.1527290000
C          C       0.36330   0.43167   0.28740   0.0528990000
C          C       0.00740   0.47062   0.82799  -0.1615530000
C          C       0.32521   0.08678   0.86641   0.1272020000
C          C       0.03406   0.44484   0.80774  -0.0946570000
C          C       0.36038   0.08425   0.86391   0.1288050000
C          C       0.37072   0.10856   0.84676  -0.1545710000
C          C       0.30687   0.37437   0.37288  -0.2137240000
C          C       0.03007   0.41638   0.80675  -0.0932610000
C          C       0.34480   0.13482   0.83220  -0.0907630000
C          C      -0.00079   0.41279   0.82582  -0.1515930000
C          C       0.47596   0.46717   0.84757   0.1275640000
C          C       0.30962   0.13718   0.83436  -0.0906480000
C          C       0.29027   0.35089   0.32193  -0.0671740000
C          C       0.29912   0.11347   0.85136  -0.1486220000
C          C       0.28070   0.46601   0.82279  -0.0906760000
C          C       0.31023   0.36885   0.31077  -0.2367320000
C          C       0.33209   0.46330   0.30299  -0.0321550000
C          C       0.42170   0.34126   0.99242  -0.0900020000
C          C       0.41133   0.35658   0.02508  -0.0905910000
C          C       0.28280   0.07670   0.34304  -0.0729150000
C          C       0.37821   0.43638   0.24747  -0.0323350000
C          C       0.28714   0.35630   0.38362  -0.0702920000
C          C       0.30837   0.48147   0.85726   0.1236050000
C          C       0.28024   0.02154   0.01045   0.1262930000
C          C       0.35502   0.45133   0.19411   0.2569140000
C          C       0.39297   0.42046   0.30837  -0.0353600000
C          C       0.39399   0.44483   0.13510  -0.0629760000
C          C       0.31812   0.38098   0.33640   0.2630600000
C          C       0.34857   0.40655   0.29114  -0.0320560000
C          C       0.32368   0.01618   0.31256   0.2597260000
C          C       0.26108   0.02460   0.04643  -0.1556270000
C          C       0.36349   0.45877   0.12003  -0.0745880000
C          C       0.36870   0.46266   0.08069   0.5432630000
C          C       0.26194   0.03594   0.98230   0.1260260000
C          C       0.28787   0.02459   0.33249  -0.2405120000
C          C       0.33812   0.45042   0.85412   0.1215410000
C          C       0.03627   0.31846   0.36602   0.5393280000
C          C       0.26050   0.10851   0.35965   0.5380410000
C          C       0.00909   0.33053   0.31243  -0.0746480000
C          C       0.00663   0.33776   0.34700  -0.0703630000
C          C       0.48129   0.34926   0.29483  -0.2166880000
C          C       0.44771   0.38321   0.34616  -0.2331050000
C          C       0.25736   0.32528   0.36881   0.5405130000
C          C       0.39008   0.44129   0.17201  -0.2325410000
C          C       0.26783   0.05471   0.34762  -0.0685600000
C          C       0.39510   0.40736   0.99386   0.1232030000
C          C       0.32850   0.46893   0.14261  -0.0699640000
C          C       0.20521   0.05669   0.02437  -0.0857940000
C          C       0.22359   0.04254   0.05259  -0.0818360000
C          C       0.33895   0.03809   0.30757  -0.2171190000
C          C       0.39818   0.38964   0.02651  -0.1500690000
C          C       0.33970   0.42640   0.83502  -0.1566910000
C          C       0.47593   0.36431   0.36337  -0.0619220000
C          C       0.31049   0.43480   0.81976  -0.0906200000
C          C       0.27909   0.48986   0.84124  -0.1512910000
C          C       0.27842   0.34456   0.35822  -0.0695360000
C          C       0.31860   0.06805   0.32269  -0.0782890000
C          C       0.41943   0.35846   0.96007  -0.1501310000
C          C       0.47183   0.43892   0.84635   0.1289950000
C          C       0.40570   0.39210   0.96129   0.1275110000
C          C       0.22375   0.05366   0.98888  -0.1522980000
C          C       0.45026   0.37542   0.31191   0.2562460000
C          C       0.32420   0.46503   0.17936  -0.2149710000
C          C       0.41615   0.01028  -0.00022   0.1263930000
C          C       0.43224   0.02368   0.96892   0.1242390000
C          C       0.45547   0.03723   0.97044  -0.1597500000
C          C       0.46214   0.03630   0.00357  -0.0810830000
C          C       0.44643   0.02244   0.03443  -0.0917600000
C          C       0.42329   0.00929   0.03329  -0.1536870000
N          N       0.08896   0.27024   0.44113  -0.2061580000
N          N       0.17955   0.25657   0.49496  -0.2094750000
N          N       0.11907   0.25599   0.45406  -0.0150650000
N          N       0.11090   0.24988   0.48926  -0.2012440000
N          N       0.18832   0.26153   0.45963  -0.0148460000
N          N       0.20705   0.27916   0.45102  -0.2093280000
N          N       0.24813   0.24808   0.37807  -0.2014890000
N          N       0.23126   0.22889   0.38698  -0.0137160000
N          N       0.25261   0.19998   0.37300  -0.2133830000
N          N       0.18441   0.19348   0.36798  -0.2021750000
N          N       0.16335   0.22255   0.38185  -0.0117880000
N          N       0.13269   0.23745   0.37004  -0.2062340000
N          N       0.12546   0.30564   0.38034  -0.2014240000
N          N       0.15601   0.29140   0.39245  -0.0136240000
N          N       0.17415   0.30955   0.38432  -0.1983950000
N          N       0.18511   0.18971   0.48577  -0.2002980000
N          N       0.19498   0.19408   0.45049  -0.0181670000
N          N       0.21763   0.16594   0.43516  -0.2058280000
N          N       0.42057   0.02015   0.94108  -0.2074410000
N          N       0.31667   0.00652   0.99502  -0.2145790000
N          N       0.39835   0.00586   0.95398  -0.0154610000
N          N       0.39505  -0.00022   0.98917  -0.2015900000
N          N       0.32042   0.01149   0.95971  -0.0120500000
N          N       0.28818   0.02905   0.95120  -0.2086170000
N          N       0.31483   0.49830   0.87806  -0.2033050000
N          N       0.34650   0.47898   0.88701  -0.0109220000
N          N       0.36124   0.45011   0.87296  -0.2099540000
N          N       0.43861   0.44347   0.86795  -0.2054920000
N          N       0.42350   0.47254   0.88184  -0.0100510000
N          N       0.44520   0.48733   0.87013  -0.2078660000
N          N       0.37884   0.05552   0.88045  -0.2030430000
N          N       0.35651   0.04133   0.89259  -0.0162250000
N          N       0.32409   0.05960   0.88469  -0.1975290000
N          N       0.38301   0.43966   0.98577  -0.2013740000
N          N       0.38610   0.44411   0.95053  -0.0176490000
N          N       0.39963   0.41596   0.93513  -0.2071100000
O          O       0.46806   0.04293   0.85093  -0.5441880000
O          O       0.43981   0.07680   0.89562  -0.5392640000
O          O       0.11925   0.20018   0.56042  -0.5496440000
O          O       0.14753   0.22853   0.56769  -0.5418030000
O          O       0.23168   0.06988   0.90422  -0.5372600000
O          O       0.26188   0.06550   0.84718  -0.5464320000
O          O       0.46663   0.36581   0.87679  -0.5442920000
O          O       0.41841   0.37919   0.85411  -0.5477060000
O          O       0.01747   0.23702   0.79695  -0.2081740000
O          O       0.08738   0.19850   0.73067  -0.2111310000
O          O       0.09874   0.14998   0.82847  -0.2042690000
O          O       0.03788   0.14164   0.79309  -0.2052740000
O          O       0.06382   0.29312   0.35098  -0.5449630000
O          O       0.03519   0.32685   0.39579  -0.5407050000
O          O       0.39997   0.45005   0.06049  -0.5480760000
O          O       0.33975   0.47984   0.06773  -0.5385880000
O          O       0.24758   0.31858   0.40269  -0.5389400000
O          O       0.24924   0.31549   0.34555  -0.5469240000
O          O       0.22871   0.11568   0.37841  -0.5416110000
O          O       0.27484   0.12888   0.35413  -0.5505330000
O          O       0.34602   0.48706   0.29697  -0.2078520000
O          O       0.34785   0.44851   0.23075  -0.2107900000
O          O       0.33637   0.39998   0.32830  -0.2037420000
O          O       0.42358   0.39180   0.29302  -0.2051860000
Zn         Zn      0.12848   0.00716   0.07893   0.4611270000
Zn         Zn      0.13804   0.02130   0.98394   0.6838390000
Zn         Zn      0.08876   0.08439   0.11888   0.6809720000
Zn         Zn      0.21435   0.45716   0.10139   0.6813570000
Zn         Zn      0.06980   0.46739   0.11194   0.6817650000
Zn         Zn      0.32516   0.25715   0.57888   0.4607360000
Zn         Zn      0.34795   0.27131   0.48398   0.6826250000
Zn         Zn      0.26679   0.33436   0.61883   0.6819170000
Zn         Zn      0.27766   0.20732   0.60151   0.6821470000
Zn         Zn      0.40646   0.21730   0.61195   0.6826150000
H          H       0.49008   0.00738   0.17101   0.1378190000
H          H       0.44107   0.05374   0.20781   0.1063910000
H          H       0.10246   0.39323   0.15463   0.1276990000
H          H       0.18596   0.11639   0.60793   0.1273690000
H          H       0.44794   0.10320   0.20936   0.1075260000
H          H       0.14853   0.34576   0.18137   0.1114380000
H          H       0.00370   0.10914   0.17410   0.1324560000
H          H       0.20947   0.34176   0.17784   0.1118580000
H          H       0.21646   0.15861   0.69735   0.1197480000
H          H       0.22744   0.38520   0.14740   0.1324330000
H          H       0.24144   0.02880   0.18979   0.1079840000
H          H       0.18063   0.12674   0.71751   0.1132320000
H          H       0.19051   0.02871   0.71029   0.0912920000
H          H       0.17775   0.04039   0.66828   0.0824910000
H          H       0.06795   0.18479   0.00706   0.1106780000
H          H       0.08590   0.15826   0.95042   0.1043030000
H          H       0.10997   0.04634   0.75699   0.0908750000
H          H       0.10062   0.08677   0.76351   0.0744520000
H          H       0.22187   0.14896   0.58825   0.1106300000
H          H       0.11852   0.08477   0.66387   0.0849300000
H          H       0.09819   0.06065   0.69228   0.0893220000
H          H       0.07904   0.06309   0.88260   0.1175760000
H          H       0.17400   0.08410   0.72243   0.0789030000
H          H       0.12969   0.11579   0.72132   0.0738990000
H          H       0.22460   0.48647   0.93219   0.1370530000
H          H       0.22438   0.49196   0.66375   0.1200250000
H          H       0.46672   0.18979   0.70037   0.1197570000
H          H       0.01700   0.15554   0.73216   0.1216500000
H          H       0.07572   0.09631   0.64057   0.1226320000
H          H       0.08582   0.06908   0.81701   0.1078230000
H          H       0.25991   0.43825   0.63666   0.1200820000
H          H       0.19504   0.02026   0.86926   0.1074920000
H          H       0.32427   0.42957   0.96897   0.0999630000
H          H       0.29237   0.45385   0.92008   0.0954430000
H          H       0.13329   0.46898   0.70807   0.1296320000
H          H       0.10862   0.09843   0.94894   0.1297230000
H          H       0.13724   0.09729   0.16710   0.1381740000
H          H       0.02537   0.13009   0.61009   0.1228100000
H          H       0.18979   0.08292   0.19505   0.1087580000
H          H       0.24306   0.48596   0.15697   0.1290170000
H          H       0.16990   0.41479   0.68090   0.1199550000
H          H       0.07179   0.15316   0.06506   0.1322600000
H          H       0.28985   0.43561   0.03302   0.1381930000
H          H       0.20262   0.02772   0.80278   0.1245940000
H          H       0.03313   0.45180   0.05322   0.1362270000
H          H       0.01977   0.45387   0.99391   0.1135990000
H          H       0.04695   0.47796   0.94036   0.1120400000
H          H       0.08824   0.00193   0.94341   0.1332390000
H          H       0.41662   0.25699   0.67131   0.1364470000
H          H       0.40053   0.30325   0.70826   0.1056770000
H          H       0.42716   0.14317   0.65484   0.1276260000
H          H       0.39491   0.36540   0.10752   0.1255240000
H          H       0.34318   0.35282   0.70975   0.1079850000
H          H       0.41525   0.09590   0.68200   0.1114720000
H          H       0.29920   0.35900   0.67430   0.1324230000
H          H       0.35991   0.09210   0.67882   0.1109520000
H          H       0.27655   0.40884   0.19608   0.1190450000
H          H       0.31347   0.13553   0.64835   0.1336350000
H          H       0.13393   0.27963   0.68930   0.1080200000
H          H       0.33409   0.37735   0.21681   0.1107510000
H          H       0.42640   0.27889   0.21063   0.0912090000
H          H       0.44834   0.29047   0.16848   0.0856330000
H          H       0.24101   0.43458   0.50660   0.1109680000
H          H       0.27798   0.40792   0.44998   0.1047110000
H          H       0.46598   0.29662   0.25700   0.0905270000
H          H       0.43116   0.33697   0.26359   0.0752700000
H          H       0.33638   0.39753   0.08721   0.1102400000
H          H       0.46567   0.33458   0.16387   0.0859680000
H          H       0.49578   0.31072   0.19261   0.0895350000
H          H       0.41683   0.31307   0.38283   0.1181960000
H          H       0.38113   0.33441   0.22232   0.0803700000
H          H       0.39424   0.36601   0.22108   0.0738050000
H          H       0.32234   0.23647   0.43233   0.1359510000
H          H       0.45210   0.24201   0.16477   0.1208420000
H          H       0.49258   0.44017   0.20018   0.1197970000
H          H       0.46080   0.40596   0.23192   0.1211080000
H          H       0.00874   0.34606   0.14082   0.1229780000
H          H       0.43722   0.31894   0.31725   0.1080800000
H          H       0.48360   0.18817   0.13810   0.1233480000
H          H       0.35005   0.27102   0.36920   0.1085340000
H          H       0.26208   0.17916   0.46958   0.0999850000
H          H       0.29364   0.20361   0.42051   0.0957600000
H          H       0.04509   0.21890   0.20757   0.1298870000
H          H       0.31677   0.34816   0.44872   0.1296510000
H          H       0.18112   0.34767   0.66683   0.1370330000
H          H       0.04040   0.37981   0.11038   0.1231780000
H          H       0.12874   0.33364   0.69457   0.1082500000
H          H       0.19181   0.23660   0.65670   0.1295640000
H          H       0.07608   0.16458   0.18075   0.1177630000
H          H       0.24062   0.40317   0.56477   0.1317350000
H          H       0.25845   0.18531   0.53354   0.1382380000
H          H       0.36878   0.27818   0.30272   0.1249720000
H          H       0.48836   0.20189   0.55325   0.1369130000
H          H       0.02941   0.20411   0.49399   0.1137090000
H          H       0.00482   0.22816   0.44042   0.1109280000
H          H       0.43791   0.25196   0.44339   0.1338790000
C          C       0.13670   0.06832   0.71259   0.0529400000
C          C       0.49259   0.02938   0.17200  -0.1599950000
C          C       0.17479   0.41322   0.13358   0.1274260000
C          C       0.46593   0.05515   0.19225  -0.0945300000
C          C       0.13961   0.41574   0.13608   0.1288740000
C          C       0.12927   0.39143   0.15323  -0.1545790000
C          C       0.19312   0.12562   0.62711  -0.2138590000
C          C       0.46992   0.08361   0.19324  -0.0933370000
C          C       0.15519   0.36518   0.16779  -0.0905630000
C          C       0.00079   0.08720   0.17417  -0.1519610000
C          C       0.02404   0.03283   0.15242   0.1274690000
C          C       0.19037   0.36281   0.16563  -0.0908830000
C          C       0.20972   0.14910   0.67806  -0.0675880000
C          C       0.20087   0.38652   0.14863  -0.1486740000
C          C       0.21930   0.03399   0.17720  -0.0907750000
C          C       0.18976   0.13115   0.68922  -0.2384070000
C          C       0.16790   0.03669   0.69700  -0.0325750000
C          C       0.07829   0.15874   0.00757  -0.0901880000
C          C       0.08867   0.14341   0.97491  -0.0904350000
C          C       0.21720   0.42329   0.65695  -0.0728480000
C          C       0.12179   0.06362   0.75252  -0.0321240000
C          C       0.21286   0.14369   0.61638  -0.0700980000
C          C       0.19162   0.01852   0.14273   0.1233740000
C          C       0.21975   0.47845   0.98954   0.1263460000
C          C       0.14497   0.04867   0.80588   0.2569080000
C          C       0.10703   0.07953   0.69162  -0.0351960000
C          C       0.10600   0.05516   0.86489  -0.0630450000
C          C       0.18187   0.11901   0.66359   0.2629860000
C          C       0.15142   0.09345   0.70885  -0.0323270000
C          C       0.17632   0.48381   0.68743   0.2599510000
C          C       0.23892   0.47540   0.95356  -0.1554940000
C          C       0.13650   0.04122   0.87996  -0.0745830000
C          C       0.13130   0.03734   0.91930   0.5435670000
C          C       0.23805   0.46406   0.01770   0.1261770000
C          C       0.21212   0.47541   0.66750  -0.2407370000
C          C       0.16188   0.04958   0.14587   0.1214840000
C          C       0.46373   0.18152   0.63397   0.5389820000
C          C       0.23949   0.39149   0.64034   0.5379170000
C          C       0.49091   0.16947   0.68756  -0.0747050000
C          C       0.49336   0.16223   0.65299  -0.0702940000
C          C       0.01871   0.15073   0.70516  -0.2166760000
C          C       0.05228   0.11678   0.65384  -0.2334000000
C          C       0.24264   0.17471   0.63118   0.5406910000
C          C       0.10990   0.05869   0.82798  -0.2325160000
C          C       0.23216   0.44528   0.65237  -0.0684310000
C          C       0.10489   0.09263   0.00613   0.1233410000
C          C       0.17149   0.03106   0.85738  -0.0699840000
C          C       0.29478   0.44331   0.97562  -0.0858400000
C          C       0.27640   0.45746   0.94740  -0.0818830000
C          C       0.16104   0.46191   0.69242  -0.2170850000
C          C       0.10182   0.11036   0.97348  -0.1500770000
C          C       0.16030   0.07359   0.16497  -0.1563050000
C          C       0.02407   0.13568   0.63662  -0.0616620000
C          C       0.18950   0.06520   0.18023  -0.0907690000
C          C       0.22091   0.01013   0.15875  -0.1512590000
C          C       0.22157   0.15543   0.64177  -0.0695380000
C          C       0.18139   0.43195   0.67730  -0.0782630000
C          C       0.08056   0.14153   0.03992  -0.1499730000
C          C       0.02817   0.06107   0.15365   0.1291540000
C          C       0.09429   0.10789   0.03870   0.1273090000
C          C       0.27625   0.44633   0.01111  -0.1525110000
C          C       0.04973   0.12458   0.68808   0.2563410000
C          C       0.17580   0.03496   0.82063  -0.2151640000
C          C       0.08384   0.48972   0.00022   0.1263590000
C          C       0.06775   0.47632   0.03107   0.1242000000
C          C       0.04453   0.46276   0.02955  -0.1598000000
C          C       0.03786   0.46369   0.99642  -0.0809440000
C          C       0.05357   0.47756   0.96556  -0.0914060000
C          C       0.07671   0.49070   0.96670  -0.1536960000
C          C       0.43931   0.31843   0.21266   0.0569030000
C          C       0.39153   0.27903   0.67228  -0.1608750000
C          C       0.34508   0.16332   0.63408   0.1274550000
C          C       0.38209   0.30476   0.69261  -0.0924410000
C          C       0.37658   0.16573   0.63640   0.1247370000
C          C       0.40279   0.14144   0.65359  -0.1539800000
C          C       0.36873   0.37489   0.12652  -0.2100820000
C          C       0.34899   0.33328   0.69356  -0.0934950000
C          C       0.39587   0.11531   0.66838  -0.0894190000
C          C       0.32413   0.33701   0.67435  -0.1511560000
C          C       0.36648   0.28262   0.65258   0.1313730000
C          C       0.36403   0.11306   0.66642  -0.0876190000
C          C       0.30264   0.39905   0.17696  -0.0666840000
C          C       0.33820   0.13675   0.64938  -0.1520510000
C          C       0.15728   0.28467   0.67681  -0.0896290000
C          C       0.33494   0.38129   0.18846  -0.2359990000
C          C       0.44765   0.28680   0.19717  -0.0348810000
C          C       0.25690   0.40856   0.50721  -0.0913390000
C          C       0.27823   0.39316   0.47457  -0.0896050000
C          C       0.03167   0.17313   0.15763  -0.0736720000
C          C       0.43894   0.31378   0.25259  -0.0332510000
C          C       0.33634   0.39273   0.11543  -0.0717020000
C          C       0.21797   0.26888   0.64258   0.1238300000
C          C       0.30686   0.22835   0.48972   0.1240850000
C          C       0.40402   0.29881   0.30597   0.2555620000
C          C       0.46829   0.32954   0.19170  -0.0395000000
C          C       0.40669   0.30528   0.36505  -0.0653180000
C          C       0.36806   0.36883   0.16309   0.2640400000
C          C       0.40122   0.34362   0.20875  -0.0348210000
C          C       0.49701   0.23380   0.18769   0.2603950000
C          C       0.30865   0.22530   0.45380  -0.1517690000
C          C       0.38239   0.29161   0.38004  -0.0741020000
C          C       0.37157   0.28786   0.41941   0.5460380000
C          C       0.28912   0.21390   0.51797   0.1268170000
C          C       0.47921   0.22540   0.16828  -0.2417330000
C          C       0.21501   0.29988   0.64572   0.1246850000
C          C       0.03769   0.43162   0.13407   0.5388190000
C          C       0.04928   0.14128   0.14120   0.5403390000
C          C       0.49549   0.41972   0.18746  -0.0738980000
C          C       0.01797   0.41229   0.15303  -0.0703980000
C          C       0.47770   0.40100   0.20503  -0.2156040000
C          C       0.00468   0.36667   0.15398  -0.2343010000
C          C       0.26788   0.42402   0.12963   0.5403250000
C          C       0.41792   0.30872   0.32815  -0.2317990000
C          C       0.49675   0.19520   0.15338  -0.0707870000
C          C       0.29819   0.34254   0.50602   0.1258210000
C          C       0.36892   0.28159   0.35737  -0.0706070000
C          C       0.27433   0.19299   0.47611  -0.0839980000
C          C       0.29240   0.20724   0.44778  -0.0842120000
C          C       0.03195   0.21181   0.19234  -0.2166790000
C          C       0.29938   0.36014   0.47327  -0.1531300000
C          C       0.18286   0.32402   0.66469  -0.1561130000
C          C       0.02252   0.38555   0.13679  -0.0631920000
C          C       0.15430   0.31582   0.67985  -0.0904880000
C          C       0.18893   0.26070   0.65848  -0.1520670000
C          C       0.30289   0.40483   0.14057  -0.0685540000
C          C       0.04902   0.18178   0.17743  -0.0763590000
C          C       0.25612   0.39147   0.53965  -0.1478520000
C          C       0.33335   0.31095   0.65374   0.1251230000
C          C       0.27718   0.35785   0.53857   0.1259370000
C          C       0.27215   0.19606   0.51155  -0.1533270000
C          C       0.48185   0.37468   0.18805   0.2574550000
C          C       0.37936   0.28534   0.32063  -0.2150790000
C          C       0.42608   0.23967   0.50018   0.1242680000
C          C       0.44021   0.22629   0.53104   0.1259770000
C          C       0.47783   0.21283   0.52955  -0.1585130000
C          C       0.00016   0.21385   0.49647  -0.0815120000
C          C       0.48598   0.22768   0.46559  -0.0907530000
C          C       0.44906   0.24071   0.46668  -0.1525060000
N          N       0.07943   0.47984   0.05891  -0.2071920000
N          N       0.18333   0.49347   0.00498  -0.2142710000
N          N       0.10164   0.49413   0.04601  -0.0161380000
N          N       0.10494   0.00021   0.01082  -0.2014750000
N          N       0.17957   0.48850   0.04028  -0.0118770000
N          N       0.21181   0.47094   0.04879  -0.2090570000
N          N       0.18516   0.00169   0.12193  -0.2032550000
N          N       0.15349   0.02101   0.11298  -0.0104100000
N          N       0.13875   0.04989   0.12703  -0.2098780000
N          N       0.06138   0.05653   0.13204  -0.2058730000
N          N       0.07650   0.02746   0.11815  -0.0103110000
N          N       0.05480   0.01267   0.12986  -0.2073910000
N          N       0.12115   0.44448   0.11954  -0.2026870000
N          N       0.14348   0.45866   0.10740  -0.0160920000
N          N       0.17591   0.44040   0.11530  -0.1981570000
N          N       0.11698   0.06032   0.01422  -0.2009870000
N          N       0.11389   0.05588   0.04947  -0.0177180000
N          N       0.10036   0.08403   0.06486  -0.2074000000
N          N       0.41103   0.22975   0.55886  -0.2065740000
N          N       0.32045   0.24343   0.50503  -0.2097460000
N          N       0.38092   0.24401   0.54593  -0.0149450000
N          N       0.38910   0.25011   0.51074  -0.2009480000
N          N       0.31167   0.23846   0.54036  -0.0154390000
N          N       0.29294   0.22083   0.54897  -0.2090460000
N          N       0.25187   0.25192   0.62192  -0.2011980000
N          N       0.26873   0.27110   0.61301  -0.0140860000
N          N       0.24738   0.30002   0.62699  -0.2135930000
N          N       0.31558   0.30652   0.63201  -0.2020660000
N          N       0.33665   0.27744   0.61814  -0.0111250000
N          N       0.36730   0.26254   0.62995  -0.2066630000
N          N       0.37453   0.19436   0.61965  -0.2019580000
N          N       0.34399   0.20859   0.60754  -0.0134520000
N          N       0.32585   0.19045   0.61568  -0.1979190000
N          N       0.31488   0.31029   0.51422  -0.2000280000
N          N       0.30501   0.30591   0.54950  -0.0183980000
N          N       0.28237   0.33406   0.56483  -0.2058370000
O          O       0.43617   0.20687   0.64901  -0.5450480000
O          O       0.46480   0.17314   0.60420  -0.5402040000
O          O       0.10003   0.04994   0.93950  -0.5480300000
O          O       0.16024   0.02015   0.93226  -0.5390560000
O          O       0.25241   0.18141   0.59730  -0.5386910000
O          O       0.25076   0.18451   0.65444  -0.5474190000
O          O       0.27128   0.38431   0.62158  -0.5418150000
O          O       0.22516   0.37111   0.64586  -0.5501900000
O          O       0.15397   0.01293   0.70302  -0.2076390000
O          O       0.15214   0.05148   0.76924  -0.2109300000
O          O       0.16362   0.10001   0.67169  -0.2033290000
O          O       0.07640   0.10819   0.70698  -0.2055770000
O          O       0.03193   0.45707   0.14906  -0.5442590000
O          O       0.06018   0.42320   0.10437  -0.5390860000
O          O       0.38075   0.29982   0.43957  -0.5502820000
O          O       0.35247   0.27146   0.43230  -0.5415150000
O          O       0.26832   0.43012   0.09577  -0.5371690000
O          O       0.23812   0.43449   0.15281  -0.5463650000
O          O       0.03336   0.13418   0.12320  -0.5437460000
O          O       0.08159   0.12080   0.14588  -0.5481880000
O          O       0.48252   0.26298   0.20304  -0.2087650000
O          O       0.41260   0.30149   0.26932  -0.2105760000
O          O       0.40126   0.35001   0.17152  -0.2042820000
O          O       0.46212   0.35835   0.20690  -0.2051860000
Zn         Zn      0.67483   0.24284   0.42111   0.4606970000
Zn         Zn      0.65205   0.22869   0.51601   0.6825810000
Zn         Zn      0.73320   0.16563   0.38116   0.6818950000
Zn         Zn      0.72233   0.29268   0.39848   0.6823580000
Zn         Zn      0.59353   0.28269   0.38804   0.6824280000
Zn         Zn      0.87152   0.49283   0.92106   0.4612460000
Zn         Zn      0.86195   0.47869   0.01605   0.6838740000
Zn         Zn      0.91124   0.41560   0.88111   0.6809460000
Zn         Zn      0.78564   0.04283   0.89860   0.6812200000
Zn         Zn      0.93019   0.03260   0.88806   0.6818890000
H          H       0.58337   0.24301   0.32868   0.1366270000
H          H       0.59946   0.19675   0.29173   0.1059360000
H          H       0.57282   0.35681   0.34515   0.1279950000
H          H       0.60509   0.13459   0.89247   0.1255560000
H          H       0.65682   0.14718   0.29024   0.1082170000
H          H       0.58474   0.40410   0.31799   0.1116650000
H          H       0.70079   0.14100   0.32569   0.1323310000
H          H       0.64009   0.40789   0.32117   0.1109880000
H          H       0.72344   0.09115   0.80391   0.1190270000
H          H       0.68652   0.36447   0.35164   0.1337110000
H          H       0.86606   0.22037   0.31069   0.1079260000
H          H       0.66590   0.12265   0.78318   0.1108830000
H          H       0.57360   0.22111   0.78936   0.0910530000
H          H       0.55165   0.20952   0.83151   0.0854670000
H          H       0.75899   0.06541   0.49339   0.1108760000
H          H       0.72201   0.09207   0.55001   0.1046300000
H          H       0.53401   0.20338   0.74299   0.0907150000
H          H       0.56883   0.16303   0.73640   0.0754960000
H          H       0.66361   0.10246   0.91278   0.1100350000
H          H       0.53432   0.16542   0.83612   0.0856630000
H          H       0.50422   0.18927   0.80738   0.0897250000
H          H       0.58316   0.18692   0.61716   0.1184170000
H          H       0.61887   0.16559   0.77767   0.0801980000
H          H       0.60575   0.13398   0.77891   0.0739880000
H          H       0.67766   0.26352   0.56766   0.1358940000
H          H       0.54789   0.25798   0.83522   0.1207220000
H          H       0.50741   0.05983   0.79982   0.1199500000
H          H       0.53920   0.09404   0.76807   0.1211000000
H          H       0.99125   0.15394   0.85917   0.1228370000
H          H       0.56277   0.18105   0.68274   0.1083950000
H          H       0.51640   0.31183   0.86189   0.1230640000
H          H       0.64994   0.22897   0.63080   0.1084170000
H          H       0.73792   0.32084   0.53041   0.0997260000
H          H       0.70635   0.29638   0.57948   0.0955560000
H          H       0.95491   0.28109   0.79242   0.1302580000
H          H       0.68322   0.15182   0.55127   0.1295900000
H          H       0.81887   0.15233   0.33316   0.1372220000
H          H       0.95959   0.12018   0.88961   0.1231040000
H          H       0.87125   0.16635   0.30542   0.1082410000
H          H       0.80817   0.26339   0.34329   0.1293450000
H          H       0.92392   0.33542   0.81924   0.1180160000
H          H       0.75938   0.09682   0.43522   0.1318010000
H          H       0.74155   0.31468   0.46645   0.1381950000
H          H       0.63122   0.22182   0.69727   0.1246720000
H          H       0.51164   0.29810   0.44674   0.1371320000
H          H       0.97059   0.29589   0.50600   0.1138930000
H          H       0.99517   0.27184   0.55957   0.1108980000
H          H       0.56208   0.24803   0.55660   0.1336620000
H          H       0.50991   0.49261   0.82898   0.1390460000
H          H       0.55892   0.44626   0.79218   0.1062320000
H          H       0.89753   0.10677   0.84536   0.1274490000
H          H       0.81404   0.38360   0.39206   0.1269540000
H          H       0.55206   0.39680   0.79063   0.1075390000
H          H       0.85146   0.15424   0.81862   0.1113520000
H          H       0.99630   0.39085   0.82589   0.1325630000
H          H       0.79052   0.15824   0.82216   0.1119870000
H          H       0.78353   0.34138   0.30264   0.1200160000
H          H       0.77256   0.11479   0.85259   0.1327640000
H          H       0.75855   0.47120   0.81020   0.1082890000
H          H       0.81936   0.37325   0.28248   0.1111290000
H          H       0.80948   0.47128   0.28970   0.0916260000
H          H       0.82225   0.45960   0.33171   0.0822480000
H          H       0.93205   0.31520   0.99293   0.1107320000
H          H       0.91410   0.34173   0.04957   0.1042340000
H          H       0.89003   0.45365   0.24300   0.0907020000
H          H       0.89938   0.41322   0.23648   0.0745230000
H          H       0.77812   0.35103   0.41174   0.1105680000
H          H       0.88147   0.41523   0.33612   0.0848760000
H          H       0.90180   0.43934   0.30771   0.0890710000
H          H       0.92096   0.43691   0.11739   0.1173930000
H          H       0.82600   0.41590   0.27756   0.0792990000
H          H       0.87029   0.38421   0.27867   0.0739430000
H          H       0.77539   0.01353   0.06780   0.1368670000
H          H       0.77562   0.00803   0.33624   0.1202700000
H          H       0.53327   0.31020   0.29963   0.1197660000
H          H       0.98300   0.34445   0.26783   0.1218750000
H          H       0.92427   0.40369   0.35942   0.1225710000
H          H       0.91417   0.43091   0.18298   0.1074950000
H          H       0.74008   0.06174   0.36333   0.1203350000
H          H       0.80496   0.47973   0.13073   0.1077390000
H          H       0.67573   0.07042   0.03102   0.1000590000
H          H       0.70763   0.04615   0.07991   0.0953080000
H          H       0.86671   0.03101   0.29192   0.1295220000
H          H       0.89136   0.40157   0.05105   0.1295270000
H          H       0.86275   0.40271   0.83289   0.1382420000
H          H       0.97462   0.36991   0.38991   0.1226000000
H          H       0.81021   0.41707   0.80494   0.1090490000
H          H       0.75694   0.01403   0.84302   0.1291120000
H          H       0.83010   0.08521   0.31909   0.1197060000
H          H       0.92821   0.34684   0.93493   0.1325220000
H          H       0.71014   0.06439   0.96697   0.1384430000
H          H       0.79738   0.47227   0.19721   0.1246230000
H          H       0.96686   0.04820   0.94677   0.1362020000
H          H       0.98023   0.04613   0.00608   0.1133370000
H          H       0.95304   0.02203   0.05963   0.1119630000
H          H       0.91176   0.49806   0.05658   0.1332110000
C          C       0.56068   0.18156   0.78734   0.0567070000
C          C       0.60847   0.22096   0.32771  -0.1607840000
C          C       0.65491   0.33667   0.36591   0.1275680000
C          C       0.61791   0.19524   0.30738  -0.0922790000
C          C       0.62341   0.33427   0.36359   0.1248190000
C          C       0.59721   0.35855   0.34640  -0.1541310000
C          C       0.63127   0.12510   0.87347  -0.2097020000
C          C       0.65101   0.16671   0.30644  -0.0935040000
C          C       0.60413   0.38469   0.33161  -0.0890700000
C          C       0.67586   0.16298   0.32564  -0.1512730000
C          C       0.63352   0.21737   0.34741   0.1312410000
C          C       0.63596   0.38694   0.33358  -0.0878510000
C          C       0.69736   0.10094   0.82302  -0.0667150000
C          C       0.66180   0.36324   0.35061  -0.1527770000
C          C       0.84271   0.21532   0.32318  -0.0898310000
C          C       0.66505   0.11870   0.81153  -0.2360000000
C          C       0.55234   0.21320   0.80282  -0.0352040000
C          C       0.74310   0.09144   0.49278  -0.0912640000
C          C       0.72177   0.10683   0.52543  -0.0894890000
C          C       0.96833   0.32687   0.84236  -0.0737850000
C          C       0.56105   0.18621   0.74740  -0.0330790000
C          C       0.66365   0.10727   0.88456  -0.0720390000
C          C       0.78202   0.23111   0.35741   0.1237290000
C          C       0.69314   0.27164   0.51027   0.1238150000
C          C       0.59598   0.20118   0.69403   0.2559170000
C          C       0.53171   0.17045   0.80829  -0.0392000000
C          C       0.59331   0.19472   0.63494  -0.0650050000
C          C       0.63193   0.13117   0.83690   0.2639680000
C          C       0.59878   0.15637   0.79124  -0.0347960000
C          C       0.50299   0.26620   0.81230   0.2601310000
C          C       0.69135   0.27470   0.54619  -0.1514660000
C          C       0.61761   0.20839   0.61995  -0.0742390000
C          C       0.62842   0.21213   0.58058   0.5457680000
C          C       0.71087   0.28610   0.48202   0.1267930000
C          C       0.52078   0.27459   0.83171  -0.2418770000
C          C       0.78498   0.20011   0.35428   0.1247420000
C          C       0.96231   0.06838   0.86592   0.5387790000
C          C       0.95071   0.35870   0.85879   0.5403300000
C          C       0.50450   0.08028   0.81253  -0.0736620000
C          C       0.98203   0.08770   0.84696  -0.0703740000
C          C       0.52229   0.09899   0.79496  -0.2155420000
C          C       0.99531   0.13332   0.84601  -0.2345500000
C          C       0.73211   0.07597   0.87036   0.5403960000
C          C       0.58208   0.19127   0.67184  -0.2320380000
C          C       0.50324   0.30480   0.84661  -0.0708960000
C          C       0.70180   0.15746   0.49397   0.1258370000
C          C       0.63108   0.21841   0.64262  -0.0705870000
C          C       0.72566   0.30700   0.52388  -0.0842330000
C          C       0.70760   0.29275   0.55221  -0.0842570000
C          C       0.96804   0.28818   0.80765  -0.2164310000
C          C       0.70061   0.13984   0.52672  -0.1533010000
C          C       0.81712   0.17597   0.33530  -0.1560910000
C          C       0.97747   0.11443   0.86320  -0.0632030000
C          C       0.84569   0.18418   0.32014  -0.0905650000
C          C       0.81106   0.23930   0.34151  -0.1519460000
C          C       0.69710   0.09516   0.85942  -0.0685490000
C          C       0.95097   0.31822   0.82256  -0.0763590000
C          C       0.74387   0.10853   0.46034  -0.1478690000
C          C       0.66665   0.18905   0.34625   0.1252560000
C          C       0.72282   0.14214   0.46142   0.1260740000
C          C       0.72784   0.30394   0.48844  -0.1532540000
C          C       0.51814   0.12531   0.81194   0.2576270000
C          C       0.62063   0.21466   0.67936  -0.2152830000
C          C       0.57391   0.26032   0.49982   0.1242870000
C          C       0.55979   0.27370   0.46895   0.1257890000
C          C       0.52216   0.28717   0.47044  -0.1582520000
C          C       0.49983   0.28614   0.50352  -0.0814680000
C          C       0.51401   0.27231   0.53440  -0.0906420000
C          C       0.55094   0.25928   0.53331  -0.1527290000
C          C       0.86330   0.43167   0.28740   0.0528990000
C          C       0.50741   0.47062   0.82799  -0.1615530000
C          C       0.82521   0.08678   0.86641   0.1272020000
C          C       0.53406   0.44484   0.80774  -0.0946570000
C          C       0.86038   0.08425   0.86391   0.1288050000
C          C       0.87072   0.10856   0.84676  -0.1545710000
C          C       0.80687   0.37437   0.37288  -0.2137240000
C          C       0.53007   0.41638   0.80675  -0.0932610000
C          C       0.84480   0.13482   0.83220  -0.0907630000
C          C       0.49921   0.41279   0.82582  -0.1515930000
C          C       0.97596   0.46717   0.84757   0.1275640000
C          C       0.80962   0.13718   0.83436  -0.0906480000
C          C       0.79027   0.35089   0.32193  -0.0671740000
C          C       0.79912   0.11347   0.85136  -0.1486220000
C          C       0.78070   0.46601   0.82279  -0.0906760000
C          C       0.81023   0.36885   0.31077  -0.2367320000
C          C       0.83209   0.46330   0.30299  -0.0321550000
C          C       0.92171   0.34126   0.99242  -0.0900020000
C          C       0.91133   0.35658   0.02508  -0.0905910000
C          C       0.78280   0.07670   0.34304  -0.0729150000
C          C       0.87821   0.43638   0.24747  -0.0323350000
C          C       0.78714   0.35630   0.38362  -0.0702920000
C          C       0.80837   0.48147   0.85726   0.1236050000
C          C       0.78024   0.02154   0.01045   0.1262930000
C          C       0.85502   0.45133   0.19411   0.2569140000
C          C       0.89297   0.42046   0.30837  -0.0353600000
C          C       0.89399   0.44483   0.13510  -0.0629760000
C          C       0.81813   0.38098   0.33640   0.2630600000
C          C       0.84856   0.40655   0.29114  -0.0320560000
C          C       0.82367   0.01618   0.31256   0.2597260000
C          C       0.76107   0.02460   0.04643  -0.1556270000
C          C       0.86349   0.45877   0.12003  -0.0745880000
C          C       0.86870   0.46266   0.08069   0.5432630000
C          C       0.76194   0.03594   0.98230   0.1260260000
C          C       0.78787   0.02459   0.33249  -0.2405120000
C          C       0.83812   0.45042   0.85412   0.1215410000
C          C       0.53627   0.31846   0.36602   0.5393280000
C          C       0.76050   0.10851   0.35965   0.5380410000
C          C       0.50909   0.33053   0.31243  -0.0746480000
C          C       0.50663   0.33776   0.34700  -0.0703630000
C          C       0.98129   0.34926   0.29483  -0.2166880000
C          C       0.94772   0.38321   0.34616  -0.2331050000
C          C       0.75736   0.32528   0.36881   0.5405130000
C          C       0.89008   0.44129   0.17201  -0.2325410000
C          C       0.76784   0.05471   0.34762  -0.0685600000
C          C       0.89510   0.40736   0.99386   0.1232030000
C          C       0.82850   0.46893   0.14261  -0.0699640000
C          C       0.70521   0.05669   0.02437  -0.0857940000
C          C       0.72359   0.04254   0.05259  -0.0818360000
C          C       0.83895   0.03809   0.30757  -0.2171190000
C          C       0.89818   0.38964   0.02651  -0.1500690000
C          C       0.83970   0.42640   0.83502  -0.1566910000
C          C       0.97593   0.36431   0.36337  -0.0619220000
C          C       0.81049   0.43480   0.81976  -0.0906200000
C          C       0.77908   0.48986   0.84124  -0.1512910000
C          C       0.77843   0.34456   0.35822  -0.0695360000
C          C       0.81861   0.06805   0.32269  -0.0782890000
C          C       0.91943   0.35846   0.96007  -0.1501310000
C          C       0.97183   0.43892   0.84635   0.1289950000
C          C       0.90570   0.39210   0.96129   0.1275110000
C          C       0.72375   0.05366   0.98888  -0.1522980000
C          C       0.95026   0.37542   0.31191   0.2562460000
C          C       0.82420   0.46503   0.17936  -0.2149710000
C          C       0.91616   0.01028  -0.00022   0.1263930000
C          C       0.93224   0.02368   0.96892   0.1242390000
C          C       0.95546   0.03723   0.97044  -0.1597500000
C          C       0.96214   0.03630   0.00357  -0.0810830000
C          C       0.94643   0.02244   0.03443  -0.0917600000
C          C       0.92329   0.00929   0.03329  -0.1536870000
N          N       0.58896   0.27024   0.44113  -0.2061580000
N          N       0.67955   0.25657   0.49496  -0.2094750000
N          N       0.61908   0.25599   0.45406  -0.0150650000
N          N       0.61090   0.24988   0.48926  -0.2012440000
N          N       0.68832   0.26153   0.45963  -0.0148460000
N          N       0.70706   0.27916   0.45102  -0.2093280000
N          N       0.74813   0.24808   0.37807  -0.2014890000
N          N       0.73126   0.22889   0.38698  -0.0137160000
N          N       0.75261   0.19998   0.37300  -0.2133830000
N          N       0.68441   0.19348   0.36798  -0.2021750000
N          N       0.66334   0.22255   0.38185  -0.0117880000
N          N       0.63269   0.23745   0.37004  -0.2062340000
N          N       0.62547   0.30564   0.38034  -0.2014240000
N          N       0.65601   0.29140   0.39245  -0.0136240000
N          N       0.67415   0.30955   0.38432  -0.1983950000
N          N       0.68511   0.18971   0.48577  -0.2002980000
N          N       0.69498   0.19408   0.45049  -0.0181670000
N          N       0.71762   0.16594   0.43516  -0.2058280000
N          N       0.92057   0.02015   0.94108  -0.2074410000
N          N       0.81667   0.00652   0.99502  -0.2145790000
N          N       0.89835   0.00586   0.95398  -0.0154610000
N          N       0.89505  -0.00022   0.98917  -0.2015900000
N          N       0.82042   0.01149   0.95971  -0.0120500000
N          N       0.78818   0.02905   0.95120  -0.2086170000
N          N       0.81484   0.49830   0.87806  -0.2033050000
N          N       0.84650   0.47898   0.88701  -0.0109220000
N          N       0.86124   0.45011   0.87296  -0.2099540000
N          N       0.93861   0.44347   0.86795  -0.2054920000
N          N       0.92350   0.47254   0.88184  -0.0100510000
N          N       0.94520   0.48733   0.87013  -0.2078660000
N          N       0.87885   0.05552   0.88045  -0.2030430000
N          N       0.85651   0.04133   0.89259  -0.0162250000
N          N       0.82409   0.05960   0.88469  -0.1975290000
N          N       0.88301   0.43966   0.98577  -0.2013740000
N          N       0.88610   0.44411   0.95053  -0.0176490000
N          N       0.89963   0.41596   0.93513  -0.2071100000
O          O       0.96806   0.04293   0.85093  -0.5441880000
O          O       0.93981   0.07680   0.89562  -0.5392640000
O          O       0.61925   0.20018   0.56042  -0.5496440000
O          O       0.64753   0.22853   0.56769  -0.5418030000
O          O       0.73168   0.06988   0.90422  -0.5372600000
O          O       0.76188   0.06550   0.84718  -0.5464320000
O          O       0.96663   0.36581   0.87679  -0.5442920000
O          O       0.91840   0.37919   0.85411  -0.5477060000
O          O       0.51747   0.23702   0.79695  -0.2081740000
O          O       0.58738   0.19850   0.73067  -0.2111310000
O          O       0.59873   0.14998   0.82847  -0.2042690000
O          O       0.53788   0.14164   0.79309  -0.2052740000
O          O       0.56382   0.29312   0.35098  -0.5449630000
O          O       0.53519   0.32685   0.39579  -0.5407050000
O          O       0.89997   0.45005   0.06049  -0.5480760000
O          O       0.83975   0.47984   0.06773  -0.5385880000
O          O       0.74759   0.31858   0.40269  -0.5389400000
O          O       0.74924   0.31549   0.34555  -0.5469240000
O          O       0.72872   0.11568   0.37841  -0.5416110000
O          O       0.77484   0.12888   0.35413  -0.5505330000
O          O       0.84602   0.48706   0.29697  -0.2078520000
O          O       0.84785   0.44851   0.23075  -0.2107900000
O          O       0.83638   0.39998   0.32830  -0.2037420000
O          O       0.92359   0.39180   0.29302  -0.2051860000
Zn         Zn      0.62848   0.00716   0.07893   0.4611270000
Zn         Zn      0.63804   0.02130   0.98394   0.6838390000
Zn         Zn      0.58876   0.08439   0.11888   0.6809720000
Zn         Zn      0.71435   0.45716   0.10139   0.6813570000
Zn         Zn      0.56979   0.46739   0.11194   0.6817650000
Zn         Zn      0.82516   0.25715   0.57888   0.4607360000
Zn         Zn      0.84795   0.27131   0.48398   0.6826250000
Zn         Zn      0.76679   0.33436   0.61883   0.6819170000
Zn         Zn      0.77765   0.20732   0.60151   0.6821470000
Zn         Zn      0.90646   0.21730   0.61195   0.6826150000
H          H       0.99009   0.00738   0.17101   0.1378190000
H          H       0.94108   0.05374   0.20781   0.1063910000
H          H       0.60247   0.39323   0.15463   0.1276990000
H          H       0.68596   0.11639   0.60793   0.1273690000
H          H       0.94793   0.10320   0.20936   0.1075260000
H          H       0.64854   0.34576   0.18137   0.1114380000
H          H       0.50370   0.10914   0.17410   0.1324560000
H          H       0.70947   0.34176   0.17784   0.1118580000
H          H       0.71647   0.15861   0.69735   0.1197480000
H          H       0.72744   0.38520   0.14740   0.1324330000
H          H       0.74144   0.02880   0.18979   0.1079840000
H          H       0.68063   0.12674   0.71751   0.1132320000
H          H       0.69051   0.02871   0.71029   0.0912920000
H          H       0.67775   0.04039   0.66828   0.0824910000
H          H       0.56795   0.18479   0.00706   0.1106780000
H          H       0.58590   0.15826   0.95042   0.1043030000
H          H       0.60997   0.04634   0.75699   0.0908750000
H          H       0.60062   0.08677   0.76351   0.0744520000
H          H       0.72187   0.14896   0.58825   0.1106300000
H          H       0.61853   0.08477   0.66387   0.0849300000
H          H       0.59819   0.06065   0.69228   0.0893220000
H          H       0.57903   0.06309   0.88260   0.1175760000
H          H       0.67400   0.08410   0.72243   0.0789030000
H          H       0.62970   0.11579   0.72132   0.0738990000
H          H       0.72461   0.48647   0.93219   0.1370530000
H          H       0.72438   0.49196   0.66375   0.1200250000
H          H       0.96672   0.18979   0.70037   0.1197570000
H          H       0.51700   0.15554   0.73216   0.1216500000
H          H       0.57571   0.09631   0.64057   0.1226320000
H          H       0.58582   0.06908   0.81701   0.1078230000
H          H       0.75991   0.43825   0.63666   0.1200820000
H          H       0.69504   0.02026   0.86926   0.1074920000
H          H       0.82427   0.42957   0.96897   0.0999630000
H          H       0.79237   0.45385   0.92008   0.0954430000
H          H       0.63329   0.46898   0.70807   0.1296320000
H          H       0.60862   0.09843   0.94894   0.1297230000
H          H       0.63724   0.09729   0.16710   0.1381740000
H          H       0.52538   0.13009   0.61009   0.1228100000
H          H       0.68978   0.08292   0.19505   0.1087580000
H          H       0.74306   0.48596   0.15697   0.1290170000
H          H       0.66990   0.41479   0.68090   0.1199550000
H          H       0.57179   0.15316   0.06506   0.1322600000
H          H       0.78985   0.43561   0.03302   0.1381930000
H          H       0.70262   0.02772   0.80278   0.1245940000
H          H       0.53314   0.45180   0.05322   0.1362270000
H          H       0.51977   0.45387   0.99391   0.1135990000
H          H       0.54696   0.47796   0.94036   0.1120400000
H          H       0.58823   0.00193   0.94341   0.1332390000
H          H       0.91662   0.25699   0.67131   0.1364470000
H          H       0.90053   0.30325   0.70826   0.1056770000
H          H       0.92717   0.14317   0.65484   0.1276260000
H          H       0.89491   0.36540   0.10752   0.1255240000
H          H       0.84318   0.35282   0.70975   0.1079850000
H          H       0.91525   0.09590   0.68200   0.1114720000
H          H       0.79921   0.35900   0.67430   0.1324230000
H          H       0.85991   0.09210   0.67882   0.1109520000
H          H       0.77655   0.40884   0.19608   0.1190450000
H          H       0.81347   0.13553   0.64835   0.1336350000
H          H       0.63393   0.27963   0.68930   0.1080200000
H          H       0.83409   0.37735   0.21681   0.1107510000
H          H       0.92640   0.27889   0.21063   0.0912090000
H          H       0.94834   0.29047   0.16848   0.0856330000
H          H       0.74101   0.43458   0.50660   0.1109680000
H          H       0.77798   0.40792   0.44998   0.1047110000
H          H       0.96598   0.29662   0.25700   0.0905270000
H          H       0.93116   0.33697   0.26359   0.0752700000
H          H       0.83638   0.39753   0.08721   0.1102400000
H          H       0.96567   0.33458   0.16387   0.0859680000
H          H       0.99578   0.31072   0.19261   0.0895350000
H          H       0.91683   0.31307   0.38283   0.1181960000
H          H       0.88113   0.33441   0.22232   0.0803700000
H          H       0.89424   0.36601   0.22108   0.0738050000
H          H       0.82234   0.23647   0.43233   0.1359510000
H          H       0.95210   0.24201   0.16477   0.1208420000
H          H       0.99258   0.44017   0.20018   0.1197970000
H          H       0.96080   0.40596   0.23192   0.1211080000
H          H       0.50875   0.34606   0.14082   0.1229780000
H          H       0.93722   0.31894   0.31725   0.1080800000
H          H       0.98360   0.18817   0.13810   0.1233480000
H          H       0.85005   0.27102   0.36920   0.1085340000
H          H       0.76207   0.17916   0.46958   0.0999850000
H          H       0.79364   0.20361   0.42051   0.0957600000
H          H       0.54508   0.21890   0.20757   0.1298870000
H          H       0.81678   0.34816   0.44872   0.1296510000
H          H       0.68112   0.34767   0.66683   0.1370330000
H          H       0.54040   0.37981   0.11038   0.1231780000
H          H       0.62875   0.33364   0.69457   0.1082500000
H          H       0.69181   0.23660   0.65670   0.1295640000
H          H       0.57608   0.16458   0.18075   0.1177630000
H          H       0.74062   0.40317   0.56477   0.1317350000
H          H       0.75845   0.18531   0.53354   0.1382380000
H          H       0.86878   0.27818   0.30272   0.1249720000
H          H       0.98836   0.20189   0.55325   0.1369130000
H          H       0.52941   0.20411   0.49399   0.1137090000
H          H       0.50482   0.22816   0.44042   0.1109280000
H          H       0.93791   0.25196   0.44339   0.1338790000
C          C       0.63670   0.06832   0.71259   0.0529400000
C          C       0.99258   0.02938   0.17200  -0.1599950000
C          C       0.67479   0.41322   0.13358   0.1274260000
C          C       0.96594   0.05515   0.19225  -0.0945300000
C          C       0.63962   0.41574   0.13608   0.1288740000
C          C       0.62928   0.39143   0.15323  -0.1545790000
C          C       0.69313   0.12562   0.62711  -0.2138590000
C          C       0.96993   0.08361   0.19324  -0.0933370000
C          C       0.65520   0.36518   0.16779  -0.0905630000
C          C       0.50079   0.08720   0.17417  -0.1519610000
C          C       0.52404   0.03283   0.15242   0.1274690000
C          C       0.69037   0.36281   0.16563  -0.0908830000
C          C       0.70973   0.14910   0.67806  -0.0675880000
C          C       0.70087   0.38652   0.14863  -0.1486740000
C          C       0.71929   0.03399   0.17720  -0.0907750000
C          C       0.68976   0.13115   0.68922  -0.2384070000
C          C       0.66791   0.03669   0.69700  -0.0325750000
C          C       0.57829   0.15874   0.00757  -0.0901880000
C          C       0.58867   0.14341   0.97491  -0.0904350000
C          C       0.71720   0.42329   0.65695  -0.0728480000
C          C       0.62179   0.06362   0.75252  -0.0321240000
C          C       0.71286   0.14369   0.61638  -0.0700980000
C          C       0.69162   0.01852   0.14273   0.1233740000
C          C       0.71975   0.47845   0.98954   0.1263460000
C          C       0.64497   0.04867   0.80588   0.2569080000
C          C       0.60703   0.07953   0.69162  -0.0351960000
C          C       0.60600   0.05516   0.86489  -0.0630450000
C          C       0.68187   0.11901   0.66359   0.2629860000
C          C       0.65143   0.09345   0.70885  -0.0323270000
C          C       0.67632   0.48381   0.68743   0.2599510000
C          C       0.73892   0.47540   0.95356  -0.1554940000
C          C       0.63650   0.04122   0.87996  -0.0745830000
C          C       0.63130   0.03734   0.91930   0.5435670000
C          C       0.73805   0.46406   0.01770   0.1261770000
C          C       0.71212   0.47541   0.66750  -0.2407370000
C          C       0.66188   0.04958   0.14587   0.1214840000
C          C       0.96373   0.18152   0.63397   0.5389820000
C          C       0.73949   0.39149   0.64034   0.5379170000
C          C       0.99091   0.16947   0.68756  -0.0747050000
C          C       0.99336   0.16223   0.65299  -0.0702940000
C          C       0.51870   0.15073   0.70516  -0.2166760000
C          C       0.55228   0.11678   0.65384  -0.2334000000
C          C       0.74264   0.17471   0.63118   0.5406910000
C          C       0.60990   0.05869   0.82798  -0.2325160000
C          C       0.73216   0.44528   0.65237  -0.0684310000
C          C       0.60489   0.09263   0.00613   0.1233410000
C          C       0.67149   0.03106   0.85738  -0.0699840000
C          C       0.79478   0.44331   0.97562  -0.0858400000
C          C       0.77640   0.45746   0.94740  -0.0818830000
C          C       0.66104   0.46191   0.69242  -0.2170850000
C          C       0.60181   0.11036   0.97348  -0.1500770000
C          C       0.66030   0.07359   0.16497  -0.1563050000
C          C       0.52407   0.13568   0.63662  -0.0616620000
C          C       0.68950   0.06520   0.18023  -0.0907690000
C          C       0.72091   0.01013   0.15875  -0.1512590000
C          C       0.72157   0.15543   0.64177  -0.0695380000
C          C       0.68139   0.43195   0.67730  -0.0782630000
C          C       0.58056   0.14153   0.03992  -0.1499730000
C          C       0.52816   0.06107   0.15365   0.1291540000
C          C       0.59429   0.10789   0.03870   0.1273090000
C          C       0.77624   0.44633   0.01111  -0.1525110000
C          C       0.54974   0.12458   0.68808   0.2563410000
C          C       0.67579   0.03496   0.82063  -0.2151640000
C          C       0.58384   0.48972   0.00022   0.1263590000
C          C       0.56775   0.47632   0.03107   0.1242000000
C          C       0.54453   0.46276   0.02955  -0.1598000000
C          C       0.53786   0.46369   0.99642  -0.0809440000
C          C       0.55357   0.47756   0.96556  -0.0914060000
C          C       0.57671   0.49070   0.96670  -0.1536960000
C          C       0.93931   0.31843   0.21266   0.0569030000
C          C       0.89153   0.27903   0.67228  -0.1608750000
C          C       0.84509   0.16332   0.63408   0.1274550000
C          C       0.88209   0.30476   0.69261  -0.0924410000
C          C       0.87658   0.16573   0.63640   0.1247370000
C          C       0.90279   0.14144   0.65359  -0.1539800000
C          C       0.86873   0.37489   0.12652  -0.2100820000
C          C       0.84899   0.33328   0.69356  -0.0934950000
C          C       0.89587   0.11531   0.66838  -0.0894190000
C          C       0.82414   0.33701   0.67435  -0.1511560000
C          C       0.86648   0.28262   0.65258   0.1313730000
C          C       0.86403   0.11306   0.66642  -0.0876190000
C          C       0.80264   0.39905   0.17696  -0.0666840000
C          C       0.83820   0.13675   0.64938  -0.1520510000
C          C       0.65728   0.28467   0.67681  -0.0896290000
C          C       0.83494   0.38129   0.18846  -0.2359990000
C          C       0.94765   0.28680   0.19717  -0.0348810000
C          C       0.75690   0.40856   0.50721  -0.0913390000
C          C       0.77823   0.39316   0.47457  -0.0896050000
C          C       0.53167   0.17313   0.15763  -0.0736720000
C          C       0.93894   0.31378   0.25259  -0.0332510000
C          C       0.83634   0.39273   0.11543  -0.0717020000
C          C       0.71797   0.26888   0.64258   0.1238300000
C          C       0.80686   0.22835   0.48972   0.1240850000
C          C       0.90401   0.29881   0.30597   0.2555620000
C          C       0.96829   0.32954   0.19170  -0.0395000000
C          C       0.90668   0.30528   0.36505  -0.0653180000
C          C       0.86807   0.36883   0.16309   0.2640400000
C          C       0.90122   0.34362   0.20875  -0.0348210000
C          C       0.99700   0.23380   0.18769   0.2603950000
C          C       0.80865   0.22530   0.45380  -0.1517690000
C          C       0.88239   0.29161   0.38004  -0.0741020000
C          C       0.87157   0.28786   0.41941   0.5460380000
C          C       0.78912   0.21390   0.51797   0.1268170000
C          C       0.97922   0.22540   0.16828  -0.2417330000
C          C       0.71501   0.29988   0.64572   0.1246850000
C          C       0.53769   0.43162   0.13407   0.5388190000
C          C       0.54928   0.14128   0.14120   0.5403390000
C          C       0.99549   0.41972   0.18746  -0.0738980000
C          C       0.51796   0.41229   0.15303  -0.0703980000
C          C       0.97771   0.40100   0.20503  -0.2156040000
C          C       0.50468   0.36667   0.15398  -0.2343010000
C          C       0.76788   0.42402   0.12963   0.5403250000
C          C       0.91792   0.30872   0.32815  -0.2317990000
C          C       0.99675   0.19520   0.15338  -0.0707870000
C          C       0.79820   0.34254   0.50602   0.1258210000
C          C       0.86892   0.28159   0.35737  -0.0706070000
C          C       0.77433   0.19299   0.47611  -0.0839980000
C          C       0.79240   0.20724   0.44778  -0.0842120000
C          C       0.53195   0.21181   0.19234  -0.2166790000
C          C       0.79938   0.36014   0.47327  -0.1531300000
C          C       0.68287   0.32402   0.66469  -0.1561130000
C          C       0.52252   0.38555   0.13679  -0.0631920000
C          C       0.65430   0.31582   0.67985  -0.0904880000
C          C       0.68893   0.26070   0.65848  -0.1520670000
C          C       0.80290   0.40483   0.14057  -0.0685540000
C          C       0.54902   0.18178   0.17743  -0.0763590000
C          C       0.75612   0.39147   0.53965  -0.1478520000
C          C       0.83335   0.31095   0.65374   0.1251230000
C          C       0.77718   0.35785   0.53857   0.1259370000
C          C       0.77215   0.19606   0.51155  -0.1533270000
C          C       0.98186   0.37468   0.18805   0.2574550000
C          C       0.87937   0.28534   0.32063  -0.2150790000
C          C       0.92608   0.23967   0.50018   0.1242680000
C          C       0.94020   0.22629   0.53104   0.1259770000
C          C       0.97783   0.21283   0.52955  -0.1585130000
C          C       0.50016   0.21385   0.49647  -0.0815120000
C          C       0.98598   0.22768   0.46559  -0.0907530000
C          C       0.94906   0.24071   0.46668  -0.1525060000
N          N       0.57943   0.47984   0.05891  -0.2071920000
N          N       0.68333   0.49347   0.00498  -0.2142710000
N          N       0.60165   0.49413   0.04601  -0.0161380000
N          N       0.60495   0.00021   0.01082  -0.2014750000
N          N       0.67957   0.48850   0.04028  -0.0118770000
N          N       0.71181   0.47094   0.04879  -0.2090570000
N          N       0.68516   0.00169   0.12193  -0.2032550000
N          N       0.65349   0.02101   0.11298  -0.0104100000
N          N       0.63876   0.04989   0.12703  -0.2098780000
N          N       0.56138   0.05653   0.13204  -0.2058730000
N          N       0.57649   0.02746   0.11815  -0.0103110000
N          N       0.55479   0.01267   0.12986  -0.2073910000
N          N       0.62115   0.44448   0.11954  -0.2026870000
N          N       0.64348   0.45866   0.10740  -0.0160920000
N          N       0.67591   0.44040   0.11530  -0.1981570000
N          N       0.61698   0.06032   0.01422  -0.2009870000
N          N       0.61390   0.05588   0.04947  -0.0177180000
N          N       0.60036   0.08403   0.06486  -0.2074000000
N          N       0.91104   0.22975   0.55886  -0.2065740000
N          N       0.82045   0.24343   0.50503  -0.2097460000
N          N       0.88092   0.24401   0.54593  -0.0149450000
N          N       0.88910   0.25011   0.51074  -0.2009480000
N          N       0.81167   0.23846   0.54036  -0.0154390000
N          N       0.79294   0.22083   0.54897  -0.2090460000
N          N       0.75187   0.25192   0.62192  -0.2011980000
N          N       0.76873   0.27110   0.61301  -0.0140860000
N          N       0.74739   0.30002   0.62699  -0.2135930000
N          N       0.81558   0.30652   0.63201  -0.2020660000
N          N       0.83665   0.27744   0.61814  -0.0111250000
N          N       0.86730   0.26254   0.62995  -0.2066630000
N          N       0.87453   0.19436   0.61965  -0.2019580000
N          N       0.84399   0.20859   0.60754  -0.0134520000
N          N       0.82584   0.19045   0.61568  -0.1979190000
N          N       0.81488   0.31029   0.51422  -0.2000280000
N          N       0.80500   0.30591   0.54950  -0.0183980000
N          N       0.78237   0.33406   0.56483  -0.2058370000
O          O       0.93617   0.20687   0.64901  -0.5450480000
O          O       0.96480   0.17314   0.60420  -0.5402040000
O          O       0.60003   0.04994   0.93950  -0.5480300000
O          O       0.66024   0.02015   0.93226  -0.5390560000
O          O       0.75241   0.18141   0.59730  -0.5386910000
O          O       0.75076   0.18451   0.65444  -0.5474190000
O          O       0.77128   0.38431   0.62158  -0.5418150000
O          O       0.72516   0.37111   0.64586  -0.5501900000
O          O       0.65397   0.01293   0.70302  -0.2076390000
O          O       0.65214   0.05148   0.76924  -0.2109300000
O          O       0.66362   0.10001   0.67169  -0.2033290000
O          O       0.57641   0.10819   0.70698  -0.2055770000
O          O       0.53193   0.45707   0.14906  -0.5442590000
O          O       0.56018   0.42320   0.10437  -0.5390860000
O          O       0.88075   0.29982   0.43957  -0.5502820000
O          O       0.85246   0.27146   0.43230  -0.5415150000
O          O       0.76832   0.43012   0.09577  -0.5371690000
O          O       0.73812   0.43449   0.15281  -0.5463650000
O          O       0.53337   0.13418   0.12320  -0.5437460000
O          O       0.58159   0.12080   0.14588  -0.5481880000
O          O       0.98253   0.26298   0.20304  -0.2087650000
O          O       0.91261   0.30149   0.26932  -0.2105760000
O          O       0.90126   0.35001   0.17152  -0.2042820000
O          O       0.96212   0.35835   0.20690  -0.2051860000
Zn         Zn      0.17484   0.74284   0.42111   0.4606970000
Zn         Zn      0.15205   0.72869   0.51601   0.6825810000
Zn         Zn      0.23320   0.66563   0.38116   0.6818950000
Zn         Zn      0.22234   0.79268   0.39848   0.6823580000
Zn         Zn      0.09353   0.78269   0.38804   0.6824280000
Zn         Zn      0.37152   0.99283   0.92106   0.4612460000
Zn         Zn      0.36195   0.97869   0.01605   0.6838740000
Zn         Zn      0.41124   0.91560   0.88111   0.6809460000
Zn         Zn      0.28564   0.54284   0.89860   0.6812200000
Zn         Zn      0.43020   0.53260   0.88806   0.6818890000
H          H       0.08337   0.74301   0.32868   0.1366270000
H          H       0.09946   0.69675   0.29173   0.1059360000
H          H       0.07283   0.85681   0.34515   0.1279950000
H          H       0.10509   0.63459   0.89247   0.1255560000
H          H       0.15681   0.64718   0.29024   0.1082170000
H          H       0.08474   0.90410   0.31799   0.1116650000
H          H       0.20079   0.64100   0.32569   0.1323310000
H          H       0.14008   0.90789   0.32117   0.1109880000
H          H       0.22344   0.59115   0.80391   0.1190270000
H          H       0.18652   0.86447   0.35164   0.1337110000
H          H       0.36606   0.72037   0.31069   0.1079260000
H          H       0.16591   0.62265   0.78318   0.1108830000
H          H       0.07360   0.72111   0.78936   0.0910530000
H          H       0.05165   0.70952   0.83151   0.0854670000
H          H       0.25899   0.56541   0.49339   0.1108760000
H          H       0.22202   0.59207   0.55001   0.1046300000
H          H       0.03401   0.70338   0.74299   0.0907150000
H          H       0.06883   0.66302   0.73640   0.0754960000
H          H       0.16361   0.60246   0.91278   0.1100350000
H          H       0.03432   0.66542   0.83612   0.0856630000
H          H       0.00422   0.68927   0.80738   0.0897250000
H          H       0.08316   0.68692   0.61716   0.1184170000
H          H       0.11886   0.66559   0.77767   0.0801980000
H          H       0.10575   0.63399   0.77891   0.0739880000
H          H       0.17765   0.76352   0.56766   0.1358940000
H          H       0.04790   0.75798   0.83522   0.1207220000
H          H       0.00741   0.55983   0.79982   0.1199500000
H          H       0.03920   0.59403   0.76807   0.1211000000
H          H       0.49125   0.65394   0.85917   0.1228370000
H          H       0.06277   0.68105   0.68274   0.1083950000
H          H       0.01639   0.81183   0.86189   0.1230640000
H          H       0.14995   0.72897   0.63080   0.1084170000
H          H       0.23792   0.82084   0.53041   0.0997260000
H          H       0.20635   0.79638   0.57948   0.0955560000
H          H       0.45491   0.78110   0.79242   0.1302580000
H          H       0.18322   0.65183   0.55127   0.1295900000
H          H       0.31887   0.65233   0.33316   0.1372220000
H          H       0.45959   0.62018   0.88961   0.1231040000
H          H       0.37125   0.66635   0.30542   0.1082410000
H          H       0.30817   0.76339   0.34329   0.1293450000
H          H       0.42392   0.83542   0.81924   0.1180160000
H          H       0.25938   0.59682   0.43522   0.1318010000
H          H       0.24154   0.81468   0.46645   0.1381950000
H          H       0.13121   0.72182   0.69727   0.1246720000
H          H       0.01164   0.79809   0.44674   0.1371320000
H          H       0.47059   0.79589   0.50600   0.1138930000
H          H       0.49517   0.77184   0.55957   0.1108980000
H          H       0.06208   0.74803   0.55660   0.1336620000
H          H       0.00991   0.99260   0.82898   0.1390460000
H          H       0.05892   0.94626   0.79218   0.1062320000
H          H       0.39753   0.60677   0.84536   0.1274490000
H          H       0.31403   0.88360   0.39206   0.1269540000
H          H       0.05206   0.89680   0.79063   0.1075390000
H          H       0.35146   0.65424   0.81862   0.1113520000
H          H       0.49630   0.89085   0.82589   0.1325630000
H          H       0.29052   0.65824   0.82216   0.1119870000
H          H       0.28353   0.84139   0.30264   0.1200160000
H          H       0.27256   0.61479   0.85259   0.1327640000
H          H       0.25856   0.97120   0.81020   0.1082890000
H          H       0.31936   0.87325   0.28248   0.1111290000
H          H       0.30948   0.97128   0.28970   0.0916260000
H          H       0.32225   0.95960   0.33171   0.0822480000
H          H       0.43205   0.81520   0.99293   0.1107320000
H          H       0.41409   0.84173   0.04957   0.1042340000
H          H       0.39003   0.95365   0.24300   0.0907020000
H          H       0.39938   0.91322   0.23648   0.0745230000
H          H       0.27812   0.85103   0.41174   0.1105680000
H          H       0.38147   0.91523   0.33612   0.0848760000
H          H       0.40181   0.93934   0.30771   0.0890710000
H          H       0.42096   0.93691   0.11739   0.1173930000
H          H       0.32600   0.91590   0.27756   0.0792990000
H          H       0.37029   0.88421   0.27867   0.0739430000
H          H       0.27539   0.51353   0.06780   0.1368670000
H          H       0.27561   0.50804   0.33624   0.1202700000
H          H       0.03327   0.81020   0.29963   0.1197660000
H          H       0.48300   0.84445   0.26783   0.1218750000
H          H       0.42427   0.90368   0.35942   0.1225710000
H          H       0.41417   0.93090   0.18298   0.1074950000
H          H       0.24008   0.56174   0.36333   0.1203350000
H          H       0.30496   0.97972   0.13073   0.1077390000
H          H       0.17572   0.57042   0.03102   0.1000590000
H          H       0.20762   0.54615   0.07991   0.0953080000
H          H       0.36671   0.53101   0.29192   0.1295220000
H          H       0.39136   0.90157   0.05105   0.1295270000
H          H       0.36275   0.90271   0.83289   0.1382420000
H          H       0.47462   0.86991   0.38991   0.1226000000
H          H       0.31021   0.91707   0.80494   0.1090490000
H          H       0.25694   0.51403   0.84302   0.1291120000
H          H       0.33009   0.58521   0.31909   0.1197060000
H          H       0.42821   0.84684   0.93493   0.1325220000
H          H       0.21014   0.56439   0.96697   0.1384430000
H          H       0.29738   0.97227   0.19721   0.1246230000
H          H       0.46686   0.54820   0.94677   0.1362020000
H          H       0.48023   0.54613   0.00608   0.1133370000
H          H       0.45304   0.52203   0.05963   0.1119630000
H          H       0.41176   0.99806   0.05658   0.1332110000
C          C       0.06068   0.68156   0.78734   0.0567070000
C          C       0.10846   0.72096   0.32771  -0.1607840000
C          C       0.15491   0.83667   0.36591   0.1275680000
C          C       0.11791   0.69524   0.30738  -0.0922790000
C          C       0.12341   0.83426   0.36359   0.1248190000
C          C       0.09720   0.85855   0.34640  -0.1541310000
C          C       0.13127   0.62510   0.87347  -0.2097020000
C          C       0.15100   0.66670   0.30644  -0.0935040000
C          C       0.10412   0.88469   0.33161  -0.0890700000
C          C       0.17586   0.66299   0.32564  -0.1512730000
C          C       0.13352   0.71737   0.34741   0.1312410000
C          C       0.13595   0.88694   0.33358  -0.0878510000
C          C       0.19736   0.60094   0.82302  -0.0667150000
C          C       0.16179   0.86324   0.35061  -0.1527770000
C          C       0.34271   0.71532   0.32318  -0.0898310000
C          C       0.16505   0.61870   0.81153  -0.2360000000
C          C       0.05234   0.71320   0.80282  -0.0352040000
C          C       0.24310   0.59143   0.49278  -0.0912640000
C          C       0.22177   0.60683   0.52543  -0.0894890000
C          C       0.46832   0.82687   0.84236  -0.0737850000
C          C       0.06104   0.68621   0.74740  -0.0330790000
C          C       0.16365   0.60727   0.88456  -0.0720390000
C          C       0.28203   0.73111   0.35741   0.1237290000
C          C       0.19314   0.77164   0.51027   0.1238150000
C          C       0.09598   0.70118   0.69403   0.2559170000
C          C       0.03171   0.67045   0.80829  -0.0392000000
C          C       0.09331   0.69472   0.63494  -0.0650050000
C          C       0.13193   0.63117   0.83690   0.2639680000
C          C       0.09877   0.65637   0.79124  -0.0347960000
C          C       0.00299   0.76620   0.81230   0.2601310000
C          C       0.19134   0.77470   0.54619  -0.1514660000
C          C       0.11760   0.70839   0.61995  -0.0742390000
C          C       0.12842   0.71213   0.58058   0.5457680000
C          C       0.21087   0.78610   0.48202   0.1267930000
C          C       0.02077   0.77459   0.83171  -0.2418770000
C          C       0.28498   0.70011   0.35428   0.1247420000
C          C       0.46230   0.56838   0.86592   0.5387790000
C          C       0.45072   0.85871   0.85879   0.5403300000
C          C       0.00450   0.58028   0.81253  -0.0736620000
C          C       0.48203   0.58770   0.84696  -0.0703740000
C          C       0.02228   0.59899   0.79496  -0.2155420000
C          C       0.49531   0.63332   0.84601  -0.2345500000
C          C       0.23211   0.57597   0.87036   0.5403960000
C          C       0.08207   0.69127   0.67184  -0.2320380000
C          C       0.00324   0.80480   0.84661  -0.0708960000
C          C       0.20180   0.65746   0.49397   0.1258370000
C          C       0.13107   0.71841   0.64262  -0.0705870000
C          C       0.22565   0.80700   0.52388  -0.0842330000
C          C       0.20760   0.79276   0.55221  -0.0842570000
C          C       0.46804   0.78818   0.80765  -0.2164310000
C          C       0.20061   0.63984   0.52672  -0.1533010000
C          C       0.31712   0.67598   0.33530  -0.1560910000
C          C       0.47747   0.61443   0.86320  -0.0632030000
C          C       0.34569   0.68418   0.32014  -0.0905650000
C          C       0.31106   0.73930   0.34151  -0.1519460000
C          C       0.19710   0.59516   0.85942  -0.0685490000
C          C       0.45098   0.81822   0.82256  -0.0763590000
C          C       0.24387   0.60852   0.46034  -0.1478690000
C          C       0.16664   0.68905   0.34625   0.1252560000
C          C       0.22282   0.64214   0.46142   0.1260740000
C          C       0.22784   0.80394   0.48844  -0.1532540000
C          C       0.01814   0.62531   0.81194   0.2576270000
C          C       0.12063   0.71466   0.67936  -0.2152830000
C          C       0.07391   0.76032   0.49982   0.1242870000
C          C       0.05979   0.77370   0.46895   0.1257890000
C          C       0.02216   0.78717   0.47044  -0.1582520000
C          C      -0.00017   0.78615   0.50352  -0.0814680000
C          C       0.01401   0.77231   0.53440  -0.0906420000
C          C       0.05094   0.75928   0.53331  -0.1527290000
C          C       0.36330   0.93167   0.28740   0.0528990000
C          C       0.00741   0.97062   0.82799  -0.1615530000
C          C       0.32521   0.58678   0.86641   0.1272020000
C          C       0.03406   0.94484   0.80774  -0.0946570000
C          C       0.36038   0.58425   0.86391   0.1288050000
C          C       0.37072   0.60856   0.84676  -0.1545710000
C          C       0.30687   0.87437   0.37288  -0.2137240000
C          C       0.03007   0.91638   0.80675  -0.0932610000
C          C       0.34480   0.63482   0.83220  -0.0907630000
C          C      -0.00079   0.91279   0.82582  -0.1515930000
C          C       0.47596   0.96717   0.84757   0.1275640000
C          C       0.30962   0.63718   0.83436  -0.0906480000
C          C       0.29027   0.85089   0.32193  -0.0671740000
C          C       0.29913   0.61347   0.85136  -0.1486220000
C          C       0.28070   0.96601   0.82279  -0.0906760000
C          C       0.31023   0.86885   0.31077  -0.2367320000
C          C       0.33209   0.96330   0.30299  -0.0321550000
C          C       0.42170   0.84125   0.99242  -0.0900020000
C          C       0.41133   0.85659   0.02508  -0.0905910000
C          C       0.28280   0.57671   0.34304  -0.0729150000
C          C       0.37821   0.93638   0.24747  -0.0323350000
C          C       0.28714   0.85630   0.38362  -0.0702920000
C          C       0.30837   0.98147   0.85726   0.1236050000
C          C       0.28024   0.52154   0.01045   0.1262930000
C          C       0.35502   0.95132   0.19411   0.2569140000
C          C       0.39296   0.92046   0.30837  -0.0353600000
C          C       0.39399   0.94483   0.13510  -0.0629760000
C          C       0.31812   0.88098   0.33640   0.2630600000
C          C       0.34857   0.90655   0.29114  -0.0320560000
C          C       0.32368   0.51618   0.31256   0.2597260000
C          C       0.26107   0.52460   0.04643  -0.1556270000
C          C       0.36349   0.95877   0.12003  -0.0745880000
C          C       0.36870   0.96266   0.08069   0.5432630000
C          C       0.26194   0.53594   0.98230   0.1260260000
C          C       0.28788   0.52459   0.33249  -0.2405120000
C          C       0.33812   0.95042   0.85412   0.1215410000
C          C       0.03627   0.81847   0.36602   0.5393280000
C          C       0.26050   0.60850   0.35965   0.5380410000
C          C       0.00908   0.83053   0.31243  -0.0746480000
C          C       0.00663   0.83776   0.34700  -0.0703630000
C          C       0.48129   0.84926   0.29483  -0.2166880000
C          C       0.44771   0.88321   0.34616  -0.2331050000
C          C       0.25736   0.82529   0.36881   0.5405130000
C          C       0.39008   0.94130   0.17201  -0.2325410000
C          C       0.26783   0.55471   0.34762  -0.0685600000
C          C       0.39511   0.90736   0.99386   0.1232030000
C          C       0.32850   0.96893   0.14261  -0.0699640000
C          C       0.20521   0.55669   0.02437  -0.0857940000
C          C       0.22359   0.54254   0.05259  -0.0818360000
C          C       0.33895   0.53809   0.30757  -0.2171190000
C          C       0.39818   0.88963   0.02651  -0.1500690000
C          C       0.33970   0.92641   0.83502  -0.1566910000
C          C       0.47593   0.86432   0.36337  -0.0619220000
C          C       0.31049   0.93480   0.81976  -0.0906200000
C          C       0.27909   0.98986   0.84124  -0.1512910000
C          C       0.27842   0.84456   0.35822  -0.0695360000
C          C       0.31860   0.56805   0.32269  -0.0782890000
C          C       0.41943   0.85846   0.96007  -0.1501310000
C          C       0.47183   0.93892   0.84635   0.1289950000
C          C       0.40571   0.89210   0.96129   0.1275110000
C          C       0.22375   0.55366   0.98888  -0.1522980000
C          C       0.45026   0.87542   0.31191   0.2562460000
C          C       0.32420   0.96503   0.17936  -0.2149710000
C          C       0.41615   0.51028  -0.00022   0.1263930000
C          C       0.43224   0.52368   0.96892   0.1242390000
C          C       0.45547   0.53724   0.97044  -0.1597500000
C          C       0.46214   0.53630   0.00357  -0.0810830000
C          C       0.44642   0.52243   0.03443  -0.0917600000
C          C       0.42329   0.50930   0.03329  -0.1536870000
N          N       0.08896   0.77024   0.44113  -0.2061580000
N          N       0.17955   0.75657   0.49496  -0.2094750000
N          N       0.11908   0.75599   0.45406  -0.0150650000
N          N       0.11090   0.74988   0.48926  -0.2012440000
N          N       0.18832   0.76153   0.45963  -0.0148460000
N          N       0.20705   0.77916   0.45102  -0.2093280000
N          N       0.24813   0.74808   0.37807  -0.2014890000
N          N       0.23127   0.72889   0.38698  -0.0137160000
N          N       0.25261   0.69998   0.37300  -0.2133830000
N          N       0.18442   0.69348   0.36798  -0.2021750000
N          N       0.16334   0.72255   0.38185  -0.0117880000
N          N       0.13269   0.73745   0.37004  -0.2062340000
N          N       0.12547   0.80564   0.38034  -0.2014240000
N          N       0.15601   0.79140   0.39245  -0.0136240000
N          N       0.17415   0.80955   0.38432  -0.1983950000
N          N       0.18511   0.68971   0.48577  -0.2002980000
N          N       0.19498   0.69408   0.45049  -0.0181670000
N          N       0.21763   0.66593   0.43516  -0.2058280000
N          N       0.42057   0.52016   0.94108  -0.2074410000
N          N       0.31667   0.50653   0.99502  -0.2145790000
N          N       0.39835   0.50586   0.95398  -0.0154610000
N          N       0.39505   0.49978   0.98917  -0.2015900000
N          N       0.32042   0.51150   0.95971  -0.0120500000
N          N       0.28818   0.52904   0.95120  -0.2086170000
N          N       0.31483   0.99830   0.87806  -0.2033050000
N          N       0.34651   0.97898   0.88701  -0.0109220000
N          N       0.36124   0.95011   0.87296  -0.2099540000
N          N       0.43861   0.94346   0.86795  -0.2054920000
N          N       0.42350   0.97254   0.88184  -0.0100510000
N          N       0.44519   0.98733   0.87013  -0.2078660000
N          N       0.37884   0.55552   0.88045  -0.2030430000
N          N       0.35651   0.54133   0.89259  -0.0162250000
N          N       0.32408   0.55960   0.88469  -0.1975290000
N          N       0.38301   0.93966   0.98577  -0.2013740000
N          N       0.38610   0.94411   0.95053  -0.0176490000
N          N       0.39963   0.91597   0.93513  -0.2071100000
O          O       0.46806   0.54293   0.85093  -0.5441880000
O          O       0.43981   0.57680   0.89562  -0.5392640000
O          O       0.11925   0.70017   0.56042  -0.5496440000
O          O       0.14753   0.72854   0.56769  -0.5418030000
O          O       0.23168   0.56988   0.90422  -0.5372600000
O          O       0.26188   0.56551   0.84718  -0.5464320000
O          O       0.46663   0.86581   0.87679  -0.5442920000
O          O       0.41840   0.87919   0.85411  -0.5477060000
O          O       0.01747   0.73702   0.79695  -0.2081740000
O          O       0.08738   0.69851   0.73067  -0.2111310000
O          O       0.09873   0.64998   0.82847  -0.2042690000
O          O       0.03787   0.64164   0.79309  -0.2052740000
O          O       0.06382   0.79312   0.35098  -0.5449630000
O          O       0.03519   0.82685   0.39579  -0.5407050000
O          O       0.39997   0.95005   0.06049  -0.5480760000
O          O       0.33975   0.97984   0.06773  -0.5385880000
O          O       0.24758   0.81858   0.40269  -0.5389400000
O          O       0.24924   0.81549   0.34555  -0.5469240000
O          O       0.22871   0.61569   0.37841  -0.5416110000
O          O       0.27484   0.62888   0.35413  -0.5505330000
O          O       0.34602   0.98705   0.29697  -0.2078520000
O          O       0.34785   0.94851   0.23075  -0.2107900000
O          O       0.33637   0.89997   0.32830  -0.2037420000
O          O       0.42358   0.89180   0.29302  -0.2051860000
Zn         Zn      0.12848   0.50716   0.07893   0.4611270000
Zn         Zn      0.13804   0.52130   0.98394   0.6838390000
Zn         Zn      0.08875   0.58439   0.11888   0.6809720000
Zn         Zn      0.21435   0.95716   0.10139   0.6813570000
Zn         Zn      0.06980   0.96739   0.11194   0.6817650000
Zn         Zn      0.32516   0.75715   0.57888   0.4607360000
Zn         Zn      0.34795   0.77131   0.48398   0.6826250000
Zn         Zn      0.26679   0.83436   0.61883   0.6819170000
Zn         Zn      0.27766   0.70732   0.60151   0.6821470000
Zn         Zn      0.40646   0.71730   0.61195   0.6826150000
H          H       0.49008   0.50739   0.17101   0.1378190000
H          H       0.44108   0.55373   0.20781   0.1063910000
H          H       0.10247   0.89323   0.15463   0.1276990000
H          H       0.18596   0.61640   0.60793   0.1273690000
H          H       0.44794   0.60320   0.20936   0.1075260000
H          H       0.14853   0.84576   0.18137   0.1114380000
H          H       0.00370   0.60914   0.17410   0.1324560000
H          H       0.20946   0.84175   0.17784   0.1118580000
H          H       0.21647   0.65861   0.69735   0.1197480000
H          H       0.22743   0.88520   0.14740   0.1324330000
H          H       0.24144   0.52880   0.18979   0.1079840000
H          H       0.18063   0.62674   0.71751   0.1132320000
H          H       0.19051   0.52871   0.71029   0.0912920000
H          H       0.17775   0.54039   0.66828   0.0824910000
H          H       0.06795   0.68480   0.00706   0.1106780000
H          H       0.08590   0.65827   0.95042   0.1043030000
H          H       0.10997   0.54634   0.75699   0.0908750000
H          H       0.10062   0.58677   0.76351   0.0744520000
H          H       0.22187   0.64896   0.58825   0.1106300000
H          H       0.11852   0.58476   0.66387   0.0849300000
H          H       0.09819   0.56065   0.69228   0.0893220000
H          H       0.07903   0.56309   0.88260   0.1175760000
H          H       0.17399   0.58410   0.72243   0.0789030000
H          H       0.12969   0.61579   0.72132   0.0738990000
H          H       0.22460   0.98647   0.93219   0.1370530000
H          H       0.22438   0.99196   0.66375   0.1200250000
H          H       0.46672   0.68980   0.70037   0.1197570000
H          H       0.01700   0.65554   0.73216   0.1216500000
H          H       0.07572   0.59630   0.64057   0.1226320000
H          H       0.08581   0.56909   0.81701   0.1078230000
H          H       0.25991   0.93825   0.63666   0.1200820000
H          H       0.19504   0.52026   0.86926   0.1074920000
H          H       0.32427   0.92958   0.96897   0.0999630000
H          H       0.29237   0.95385   0.92008   0.0954430000
H          H       0.13329   0.96898   0.70807   0.1296320000
H          H       0.10863   0.59843   0.94894   0.1297230000
H          H       0.13724   0.59729   0.16710   0.1381740000
H          H       0.02538   0.63009   0.61009   0.1228100000
H          H       0.18979   0.58292   0.19505   0.1087580000
H          H       0.24306   0.98596   0.15697   0.1290170000
H          H       0.16990   0.91479   0.68090   0.1199550000
H          H       0.07179   0.65316   0.06506   0.1322600000
H          H       0.28985   0.93561   0.03302   0.1381930000
H          H       0.20262   0.52772   0.80278   0.1245940000
H          H       0.03313   0.95180   0.05322   0.1362270000
H          H       0.01977   0.95386   0.99391   0.1135990000
H          H       0.04696   0.97796   0.94036   0.1120400000
H          H       0.08824   0.50193   0.94341   0.1332390000
H          H       0.41662   0.75699   0.67131   0.1364470000
H          H       0.40053   0.80325   0.70826   0.1056770000
H          H       0.42717   0.64318   0.65484   0.1276260000
H          H       0.39491   0.86541   0.10752   0.1255240000
H          H       0.34318   0.85282   0.70975   0.1079850000
H          H       0.41525   0.59590   0.68200   0.1114720000
H          H       0.29920   0.85900   0.67430   0.1324230000
H          H       0.35991   0.59210   0.67882   0.1109520000
H          H       0.27655   0.90884   0.19608   0.1190450000
H          H       0.31348   0.63553   0.64835   0.1336350000
H          H       0.13393   0.77963   0.68930   0.1080200000
H          H       0.33409   0.87735   0.21681   0.1107510000
H          H       0.42640   0.77889   0.21063   0.0912090000
H          H       0.44834   0.79047   0.16848   0.0856330000
H          H       0.24101   0.93459   0.50660   0.1109680000
H          H       0.27798   0.90792   0.44998   0.1047110000
H          H       0.46598   0.79662   0.25700   0.0905270000
H          H       0.43116   0.83697   0.26359   0.0752700000
H          H       0.33638   0.89753   0.08721   0.1102400000
H          H       0.46567   0.83458   0.16387   0.0859680000
H          H       0.49578   0.81072   0.19261   0.0895350000
H          H       0.41683   0.81307   0.38283   0.1181960000
H          H       0.38113   0.83441   0.22232   0.0803700000
H          H       0.39424   0.86601   0.22108   0.0738050000
H          H       0.32234   0.73647   0.43233   0.1359510000
H          H       0.45210   0.74202   0.16477   0.1208420000
H          H       0.49258   0.94017   0.20018   0.1197970000
H          H       0.46080   0.90596   0.23192   0.1211080000
H          H       0.00875   0.84606   0.14082   0.1229780000
H          H       0.43722   0.81894   0.31725   0.1080800000
H          H       0.48360   0.68817   0.13810   0.1233480000
H          H       0.35005   0.77102   0.36920   0.1085340000
H          H       0.26208   0.67916   0.46958   0.0999850000
H          H       0.29364   0.70362   0.42051   0.0957600000
H          H       0.04508   0.71889   0.20757   0.1298870000
H          H       0.31677   0.84817   0.44872   0.1296510000
H          H       0.18112   0.84766   0.66683   0.1370330000
H          H       0.04040   0.87981   0.11038   0.1231780000
H          H       0.12874   0.83364   0.69457   0.1082500000
H          H       0.19181   0.73660   0.65670   0.1295640000
H          H       0.07607   0.66458   0.18075   0.1177630000
H          H       0.24062   0.90317   0.56477   0.1317350000
H          H       0.25845   0.68531   0.53354   0.1382380000
H          H       0.36878   0.77817   0.30272   0.1249720000
H          H       0.48836   0.70190   0.55325   0.1369130000
H          H       0.02940   0.70411   0.49399   0.1137090000
H          H       0.00482   0.72816   0.44042   0.1109280000
H          H       0.43792   0.75196   0.44339   0.1338790000
C          C       0.13669   0.56833   0.71259   0.0529400000
C          C       0.49259   0.52938   0.17200  -0.1599950000
C          C       0.17479   0.91322   0.13358   0.1274260000
C          C       0.46593   0.55515   0.19225  -0.0945300000
C          C       0.13961   0.91574   0.13608   0.1288740000
C          C       0.12927   0.89143   0.15323  -0.1545790000
C          C       0.19312   0.62562   0.62711  -0.2138590000
C          C       0.46992   0.58361   0.19324  -0.0933370000
C          C       0.15520   0.86518   0.16779  -0.0905630000
C          C       0.00079   0.58720   0.17417  -0.1519610000
C          C       0.02404   0.53282   0.15242   0.1274690000
C          C       0.19037   0.86281   0.16563  -0.0908830000
C          C       0.20972   0.64910   0.67806  -0.0675880000
C          C       0.20087   0.88652   0.14863  -0.1486740000
C          C       0.21929   0.53399   0.17720  -0.0907750000
C          C       0.18976   0.63115   0.68922  -0.2384070000
C          C       0.16790   0.53670   0.69700  -0.0325750000
C          C       0.07829   0.65874   0.00757  -0.0901880000
C          C       0.08867   0.64341   0.97491  -0.0904350000
C          C       0.21720   0.92329   0.65695  -0.0728480000
C          C       0.12179   0.56362   0.75252  -0.0321240000
C          C       0.21286   0.64369   0.61638  -0.0700980000
C          C       0.19162   0.51853   0.14273   0.1233740000
C          C       0.21975   0.97845   0.98954   0.1263460000
C          C       0.14498   0.54867   0.80588   0.2569080000
C          C       0.10703   0.57953   0.69162  -0.0351960000
C          C       0.10600   0.55516   0.86489  -0.0630450000
C          C       0.18187   0.61901   0.66359   0.2629860000
C          C       0.15142   0.59345   0.70885  -0.0323270000
C          C       0.17632   0.98381   0.68743   0.2599510000
C          C       0.23892   0.97540   0.95356  -0.1554940000
C          C       0.13650   0.54122   0.87996  -0.0745830000
C          C       0.13130   0.53734   0.91930   0.5435670000
C          C       0.23805   0.96406   0.01770   0.1261770000
C          C       0.21212   0.97541   0.66750  -0.2407370000
C          C       0.16188   0.54958   0.14587   0.1214840000
C          C       0.46373   0.68153   0.63397   0.5389820000
C          C       0.23949   0.89149   0.64034   0.5379170000
C          C       0.49091   0.66947   0.68756  -0.0747050000
C          C       0.49336   0.66224   0.65299  -0.0702940000
C          C       0.01870   0.65073   0.70516  -0.2166760000
C          C       0.05228   0.61678   0.65384  -0.2334000000
C          C       0.24264   0.67471   0.63118   0.5406910000
C          C       0.10991   0.55870   0.82798  -0.2325160000
C          C       0.23216   0.94528   0.65237  -0.0684310000
C          C       0.10488   0.59263   0.00613   0.1233410000
C          C       0.17149   0.53106   0.85738  -0.0699840000
C          C       0.29478   0.94331   0.97562  -0.0858400000
C          C       0.27640   0.95746   0.94740  -0.0818830000
C          C       0.16104   0.96191   0.69242  -0.2170850000
C          C       0.10182   0.61036   0.97348  -0.1500770000
C          C       0.16030   0.57359   0.16497  -0.1563050000
C          C       0.02407   0.63568   0.63662  -0.0616620000
C          C       0.18950   0.56520   0.18023  -0.0907690000
C          C       0.22091   0.51013   0.15875  -0.1512590000
C          C       0.22157   0.65543   0.64177  -0.0695380000
C          C       0.18139   0.93195   0.67730  -0.0782630000
C          C       0.08056   0.64153   0.03992  -0.1499730000
C          C       0.02816   0.56107   0.15365   0.1291540000
C          C       0.09429   0.60789   0.03870   0.1273090000
C          C       0.27625   0.94633   0.01111  -0.1525110000
C          C       0.04973   0.62458   0.68808   0.2563410000
C          C       0.17580   0.53497   0.82063  -0.2151640000
C          C       0.08384   0.98972   0.00022   0.1263590000
C          C       0.06775   0.97632   0.03107   0.1242000000
C          C       0.04453   0.96276   0.02955  -0.1598000000
C          C       0.03786   0.96369   0.99642  -0.0809440000
C          C       0.05357   0.97756   0.96556  -0.0914060000
C          C       0.07671   0.99069   0.96670  -0.1536960000
C          C       0.43931   0.81843   0.21266   0.0569030000
C          C       0.39153   0.77903   0.67228  -0.1608750000
C          C       0.34508   0.66332   0.63408   0.1274550000
C          C       0.38209   0.80475   0.69261  -0.0924410000
C          C       0.37658   0.66573   0.63640   0.1247370000
C          C       0.40279   0.64145   0.65359  -0.1539800000
C          C       0.36872   0.87489   0.12652  -0.2100820000
C          C       0.34899   0.83329   0.69356  -0.0934950000
C          C       0.39587   0.61531   0.66838  -0.0894190000
C          C       0.32413   0.83700   0.67435  -0.1511560000
C          C       0.36647   0.78262   0.65258   0.1313730000
C          C       0.36403   0.61306   0.66642  -0.0876190000
C          C       0.30264   0.89905   0.17696  -0.0666840000
C          C       0.33820   0.63675   0.64938  -0.1520510000
C          C       0.15728   0.78467   0.67681  -0.0896290000
C          C       0.33494   0.88130   0.18846  -0.2359990000
C          C       0.44765   0.78680   0.19717  -0.0348810000
C          C       0.25690   0.90856   0.50721  -0.0913390000
C          C       0.27823   0.89316   0.47457  -0.0896050000
C          C       0.03167   0.67312   0.15763  -0.0736720000
C          C       0.43894   0.81379   0.25259  -0.0332510000
C          C       0.33634   0.89273   0.11543  -0.0717020000
C          C       0.21797   0.76889   0.64258   0.1238300000
C          C       0.30685   0.72835   0.48972   0.1240850000
C          C       0.40402   0.79881   0.30597   0.2555620000
C          C       0.46829   0.82954   0.19170  -0.0395000000
C          C       0.40669   0.80528   0.36505  -0.0653180000
C          C       0.36806   0.86883   0.16309   0.2640400000
C          C       0.40122   0.84362   0.20875  -0.0348210000
C          C       0.49701   0.73380   0.18769   0.2603950000
C          C       0.30865   0.72530   0.45380  -0.1517690000
C          C       0.38239   0.79161   0.38004  -0.0741020000
C          C       0.37157   0.78787   0.41941   0.5460380000
C          C       0.28912   0.71390   0.51797   0.1268170000
C          C       0.47922   0.72540   0.16828  -0.2417330000
C          C       0.21501   0.79988   0.64572   0.1246850000
C          C       0.03769   0.93162   0.13407   0.5388190000
C          C       0.04928   0.64128   0.14120   0.5403390000
C          C       0.49549   0.91972   0.18746  -0.0738980000
C          C       0.01797   0.91229   0.15303  -0.0703980000
C          C       0.47771   0.90100   0.20503  -0.2156040000
C          C       0.00468   0.86667   0.15398  -0.2343010000
C          C       0.26788   0.92402   0.12963   0.5403250000
C          C       0.41792   0.80872   0.32815  -0.2317990000
C          C       0.49675   0.69520   0.15338  -0.0707870000
C          C       0.29819   0.84254   0.50602   0.1258210000
C          C       0.36892   0.78159   0.35737  -0.0706070000
C          C       0.27433   0.69299   0.47611  -0.0839980000
C          C       0.29240   0.70724   0.44778  -0.0842120000
C          C       0.03195   0.71181   0.19234  -0.2166790000
C          C       0.29938   0.86014   0.47327  -0.1531300000
C          C       0.18286   0.82402   0.66469  -0.1561130000
C          C       0.02252   0.88555   0.13679  -0.0631920000
C          C       0.15430   0.81581   0.67985  -0.0904880000
C          C       0.18893   0.76070   0.65848  -0.1520670000
C          C       0.30289   0.90483   0.14057  -0.0685540000
C          C       0.04902   0.68178   0.17743  -0.0763590000
C          C       0.25612   0.89146   0.53965  -0.1478520000
C          C       0.33335   0.81095   0.65374   0.1251230000
C          C       0.27718   0.85786   0.53857   0.1259370000
C          C       0.27215   0.69605   0.51155  -0.1533270000
C          C       0.48186   0.87468   0.18805   0.2574550000
C          C       0.37936   0.78534   0.32063  -0.2150790000
C          C       0.42608   0.73967   0.50018   0.1242680000
C          C       0.44020   0.72629   0.53104   0.1259770000
C          C       0.47783   0.71283   0.52955  -0.1585130000
C          C       0.00017   0.71385   0.49647  -0.0815120000
C          C       0.48598   0.72768   0.46559  -0.0907530000
C          C       0.44906   0.74071   0.46668  -0.1525060000
N          N       0.07943   0.97984   0.05891  -0.2071920000
N          N       0.18333   0.99347   0.00498  -0.2142710000
N          N       0.10164   0.99413   0.04601  -0.0161380000
N          N       0.10494   0.50022   0.01082  -0.2014750000
N          N       0.17957   0.98850   0.04028  -0.0118770000
N          N       0.21181   0.97095   0.04879  -0.2090570000
N          N       0.18516   0.50170   0.12193  -0.2032550000
N          N       0.15349   0.52101   0.11298  -0.0104100000
N          N       0.13875   0.54989   0.12703  -0.2098780000
N          N       0.06138   0.55652   0.13204  -0.2058730000
N          N       0.07650   0.52746   0.11815  -0.0103110000
N          N       0.05480   0.51267   0.12986  -0.2073910000
N          N       0.12115   0.94447   0.11954  -0.2026870000
N          N       0.14348   0.95866   0.10740  -0.0160920000
N          N       0.17591   0.94040   0.11530  -0.1981570000
N          N       0.11698   0.56033   0.01422  -0.2009870000
N          N       0.11390   0.55588   0.04947  -0.0177180000
N          N       0.10036   0.58403   0.06486  -0.2074000000
N          N       0.41103   0.72975   0.55886  -0.2065740000
N          N       0.32044   0.74343   0.50503  -0.2097460000
N          N       0.38092   0.74401   0.54593  -0.0149450000
N          N       0.38910   0.75011   0.51074  -0.2009480000
N          N       0.31167   0.73846   0.54036  -0.0154390000
N          N       0.29294   0.72083   0.54897  -0.2090460000
N          N       0.25187   0.75192   0.62192  -0.2011980000
N          N       0.26873   0.77111   0.61301  -0.0140860000
N          N       0.24738   0.80002   0.62699  -0.2135930000
N          N       0.31558   0.80651   0.63201  -0.2020660000
N          N       0.33664   0.77745   0.61814  -0.0111250000
N          N       0.36730   0.76254   0.62995  -0.2066630000
N          N       0.37453   0.69436   0.61965  -0.2019580000
N          N       0.34399   0.70859   0.60754  -0.0134520000
N          N       0.32585   0.69045   0.61568  -0.1979190000
N          N       0.31488   0.81029   0.51422  -0.2000280000
N          N       0.30501   0.80591   0.54950  -0.0183980000
N          N       0.28237   0.83406   0.56483  -0.2058370000
O          O       0.43617   0.70687   0.64901  -0.5450480000
O          O       0.46480   0.67314   0.60420  -0.5402040000
O          O       0.10002   0.54994   0.93950  -0.5480300000
O          O       0.16024   0.52015   0.93226  -0.5390560000
O          O       0.25241   0.68141   0.59730  -0.5386910000
O          O       0.25076   0.68451   0.65444  -0.5474190000
O          O       0.27128   0.88431   0.62158  -0.5418150000
O          O       0.22516   0.87112   0.64586  -0.5501900000
O          O       0.15397   0.51294   0.70302  -0.2076390000
O          O       0.15214   0.55148   0.76924  -0.2109300000
O          O       0.16362   0.60002   0.67169  -0.2033290000
O          O       0.07640   0.60819   0.70698  -0.2055770000
O          O       0.03193   0.95706   0.14906  -0.5442590000
O          O       0.06019   0.92319   0.10437  -0.5390860000
O          O       0.38074   0.79982   0.43957  -0.5502820000
O          O       0.35247   0.77146   0.43230  -0.5415150000
O          O       0.26831   0.93012   0.09577  -0.5371690000
O          O       0.23812   0.93449   0.15281  -0.5463650000
O          O       0.03336   0.63419   0.12320  -0.5437460000
O          O       0.08159   0.62080   0.14588  -0.5481880000
O          O       0.48252   0.76298   0.20304  -0.2087650000
O          O       0.41260   0.80149   0.26932  -0.2105760000
O          O       0.40126   0.85001   0.17152  -0.2042820000
O          O       0.46212   0.85835   0.20690  -0.2051860000
Zn         Zn      0.67483   0.74284   0.42111   0.4606970000
Zn         Zn      0.65205   0.72869   0.51601   0.6825810000
Zn         Zn      0.73321   0.66563   0.38116   0.6818950000
Zn         Zn      0.72234   0.79268   0.39848   0.6823580000
Zn         Zn      0.59354   0.78269   0.38804   0.6824280000
Zn         Zn      0.87151   0.99283   0.92106   0.4612460000
Zn         Zn      0.86195   0.97869   0.01605   0.6838740000
Zn         Zn      0.91124   0.91560   0.88111   0.6809460000
Zn         Zn      0.78564   0.54284   0.89860   0.6812200000
Zn         Zn      0.93019   0.53260   0.88806   0.6818890000
H          H       0.58337   0.74301   0.32868   0.1366270000
H          H       0.59947   0.69675   0.29173   0.1059360000
H          H       0.57283   0.85681   0.34515   0.1279950000
H          H       0.60509   0.63459   0.89247   0.1255560000
H          H       0.65682   0.64718   0.29024   0.1082170000
H          H       0.58474   0.90410   0.31799   0.1116650000
H          H       0.70079   0.64100   0.32569   0.1323310000
H          H       0.64009   0.90789   0.32117   0.1109880000
H          H       0.72344   0.59115   0.80391   0.1190270000
H          H       0.68652   0.86447   0.35164   0.1337110000
H          H       0.86606   0.72037   0.31069   0.1079260000
H          H       0.66590   0.62265   0.78318   0.1108830000
H          H       0.57360   0.72111   0.78936   0.0910530000
H          H       0.55165   0.70952   0.83151   0.0854670000
H          H       0.75899   0.56541   0.49339   0.1108760000
H          H       0.72201   0.59207   0.55001   0.1046300000
H          H       0.53401   0.70338   0.74299   0.0907150000
H          H       0.56883   0.66302   0.73640   0.0754960000
H          H       0.66361   0.60246   0.91278   0.1100350000
H          H       0.53432   0.66542   0.83612   0.0856630000
H          H       0.50422   0.68927   0.80738   0.0897250000
H          H       0.58316   0.68692   0.61716   0.1184170000
H          H       0.61887   0.66559   0.77767   0.0801980000
H          H       0.60575   0.63399   0.77891   0.0739880000
H          H       0.67766   0.76352   0.56766   0.1358940000
H          H       0.54790   0.75798   0.83522   0.1207220000
H          H       0.50741   0.55983   0.79982   0.1199500000
H          H       0.53920   0.59403   0.76807   0.1211000000
H          H       0.99124   0.65394   0.85917   0.1228370000
H          H       0.56278   0.68105   0.68274   0.1083950000
H          H       0.51640   0.81183   0.86189   0.1230640000
H          H       0.64994   0.72897   0.63080   0.1084170000
H          H       0.73792   0.82084   0.53041   0.0997260000
H          H       0.70635   0.79638   0.57948   0.0955560000
H          H       0.95491   0.78110   0.79242   0.1302580000
H          H       0.68322   0.65183   0.55127   0.1295900000
H          H       0.81887   0.65233   0.33316   0.1372220000
H          H       0.95959   0.62018   0.88961   0.1231040000
H          H       0.87125   0.66635   0.30542   0.1082410000
H          H       0.80817   0.76339   0.34329   0.1293450000
H          H       0.92392   0.83542   0.81924   0.1180160000
H          H       0.75938   0.59682   0.43522   0.1318010000
H          H       0.74155   0.81468   0.46645   0.1381950000
H          H       0.63122   0.72182   0.69727   0.1246720000
H          H       0.51164   0.79809   0.44674   0.1371320000
H          H       0.97059   0.79589   0.50600   0.1138930000
H          H       0.99517   0.77184   0.55957   0.1108980000
H          H       0.56208   0.74803   0.55660   0.1336620000
H          H       0.50991   0.99260   0.82898   0.1390460000
H          H       0.55892   0.94626   0.79218   0.1062320000
H          H       0.89753   0.60677   0.84536   0.1274490000
H          H       0.81404   0.88360   0.39206   0.1269540000
H          H       0.55206   0.89680   0.79063   0.1075390000
H          H       0.85145   0.65424   0.81862   0.1113520000
H          H       0.99629   0.89085   0.82589   0.1325630000
H          H       0.79052   0.65824   0.82216   0.1119870000
H          H       0.78353   0.84139   0.30264   0.1200160000
H          H       0.77256   0.61479   0.85259   0.1327640000
H          H       0.75856   0.97120   0.81020   0.1082890000
H          H       0.81936   0.87325   0.28248   0.1111290000
H          H       0.80948   0.97128   0.28970   0.0916260000
H          H       0.82225   0.95960   0.33171   0.0822480000
H          H       0.93204   0.81520   0.99293   0.1107320000
H          H       0.91410   0.84173   0.04957   0.1042340000
H          H       0.89003   0.95365   0.24300   0.0907020000
H          H       0.89938   0.91322   0.23648   0.0745230000
H          H       0.77812   0.85103   0.41174   0.1105680000
H          H       0.88147   0.91523   0.33612   0.0848760000
H          H       0.90181   0.93934   0.30771   0.0890710000
H          H       0.92096   0.93691   0.11739   0.1173930000
H          H       0.82600   0.91590   0.27756   0.0792990000
H          H       0.87029   0.88421   0.27867   0.0739430000
H          H       0.77539   0.51353   0.06780   0.1368670000
H          H       0.77562   0.50804   0.33624   0.1202700000
H          H       0.53327   0.81020   0.29963   0.1197660000
H          H       0.98300   0.84445   0.26783   0.1218750000
H          H       0.92427   0.90368   0.35942   0.1225710000
H          H       0.91417   0.93090   0.18298   0.1074950000
H          H       0.74008   0.56174   0.36333   0.1203350000
H          H       0.80496   0.97972   0.13073   0.1077390000
H          H       0.67573   0.57042   0.03102   0.1000590000
H          H       0.70763   0.54615   0.07991   0.0953080000
H          H       0.86670   0.53101   0.29192   0.1295220000
H          H       0.89136   0.90157   0.05105   0.1295270000
H          H       0.86275   0.90271   0.83289   0.1382420000
H          H       0.97462   0.86991   0.38991   0.1226000000
H          H       0.81021   0.91707   0.80494   0.1090490000
H          H       0.75694   0.51403   0.84302   0.1291120000
H          H       0.83009   0.58521   0.31909   0.1197060000
H          H       0.92820   0.84684   0.93493   0.1325220000
H          H       0.71014   0.56439   0.96697   0.1384430000
H          H       0.79738   0.97227   0.19721   0.1246230000
H          H       0.96686   0.54820   0.94677   0.1362020000
H          H       0.98023   0.54613   0.00608   0.1133370000
H          H       0.95304   0.52203   0.05963   0.1119630000
H          H       0.91176   0.99806   0.05658   0.1332110000
C          C       0.56068   0.68156   0.78734   0.0567070000
C          C       0.60847   0.72096   0.32771  -0.1607840000
C          C       0.65491   0.83667   0.36591   0.1275680000
C          C       0.61791   0.69524   0.30738  -0.0922790000
C          C       0.62341   0.83426   0.36359   0.1248190000
C          C       0.59721   0.85855   0.34640  -0.1541310000
C          C       0.63127   0.62510   0.87347  -0.2097020000
C          C       0.65101   0.66670   0.30644  -0.0935040000
C          C       0.60412   0.88469   0.33161  -0.0890700000
C          C       0.67586   0.66299   0.32564  -0.1512730000
C          C       0.63352   0.71737   0.34741   0.1312410000
C          C       0.63596   0.88694   0.33358  -0.0878510000
C          C       0.69736   0.60094   0.82302  -0.0667150000
C          C       0.66180   0.86324   0.35061  -0.1527770000
C          C       0.84271   0.71532   0.32318  -0.0898310000
C          C       0.66505   0.61870   0.81153  -0.2360000000
C          C       0.55235   0.71320   0.80282  -0.0352040000
C          C       0.74309   0.59143   0.49278  -0.0912640000
C          C       0.72177   0.60683   0.52543  -0.0894890000
C          C       0.96832   0.82687   0.84236  -0.0737850000
C          C       0.56105   0.68621   0.74740  -0.0330790000
C          C       0.66365   0.60727   0.88456  -0.0720390000
C          C       0.78203   0.73111   0.35741   0.1237290000
C          C       0.69314   0.77164   0.51027   0.1238150000
C          C       0.59598   0.70118   0.69403   0.2559170000
C          C       0.53171   0.67045   0.80829  -0.0392000000
C          C       0.59331   0.69472   0.63494  -0.0650050000
C          C       0.63193   0.63117   0.83690   0.2639680000
C          C       0.59878   0.65637   0.79124  -0.0347960000
C          C       0.50299   0.76620   0.81230   0.2601310000
C          C       0.69135   0.77470   0.54619  -0.1514660000
C          C       0.61760   0.70839   0.61995  -0.0742390000
C          C       0.62843   0.71213   0.58058   0.5457680000
C          C       0.71087   0.78610   0.48202   0.1267930000
C          C       0.52078   0.77459   0.83171  -0.2418770000
C          C       0.78498   0.70011   0.35428   0.1247420000
C          C       0.96231   0.56838   0.86592   0.5387790000
C          C       0.95071   0.85871   0.85879   0.5403300000
C          C       0.50450   0.58028   0.81253  -0.0736620000
C          C       0.98203   0.58770   0.84696  -0.0703740000
C          C       0.52228   0.59899   0.79496  -0.2155420000
C          C       0.99531   0.63332   0.84601  -0.2345500000
C          C       0.73211   0.57597   0.87036   0.5403960000
C          C       0.58208   0.69127   0.67184  -0.2320380000
C          C       0.50324   0.80480   0.84661  -0.0708960000
C          C       0.70180   0.65746   0.49397   0.1258370000
C          C       0.63108   0.71841   0.64262  -0.0705870000
C          C       0.72566   0.80700   0.52388  -0.0842330000
C          C       0.70760   0.79276   0.55221  -0.0842570000
C          C       0.96804   0.78818   0.80765  -0.2164310000
C          C       0.70062   0.63984   0.52672  -0.1533010000
C          C       0.81713   0.67598   0.33530  -0.1560910000
C          C       0.97747   0.61443   0.86320  -0.0632030000
C          C       0.84569   0.68418   0.32014  -0.0905650000
C          C       0.81106   0.73930   0.34151  -0.1519460000
C          C       0.69710   0.59516   0.85942  -0.0685490000
C          C       0.95098   0.81822   0.82256  -0.0763590000
C          C       0.74387   0.60852   0.46034  -0.1478690000
C          C       0.66664   0.68905   0.34625   0.1252560000
C          C       0.72282   0.64214   0.46142   0.1260740000
C          C       0.72784   0.80394   0.48844  -0.1532540000
C          C       0.51814   0.62531   0.81194   0.2576270000
C          C       0.62063   0.71466   0.67936  -0.2152830000
C          C       0.57391   0.76032   0.49982   0.1242870000
C          C       0.55979   0.77370   0.46895   0.1257890000
C          C       0.52216   0.78717   0.47044  -0.1582520000
C          C       0.49983   0.78615   0.50352  -0.0814680000
C          C       0.51401   0.77231   0.53440  -0.0906420000
C          C       0.55094   0.75928   0.53331  -0.1527290000
C          C       0.86330   0.93167   0.28740   0.0528990000
C          C       0.50741   0.97062   0.82799  -0.1615530000
C          C       0.82521   0.58678   0.86641   0.1272020000
C          C       0.53406   0.94484   0.80774  -0.0946570000
C          C       0.86038   0.58425   0.86391   0.1288050000
C          C       0.87072   0.60856   0.84676  -0.1545710000
C          C       0.80687   0.87437   0.37288  -0.2137240000
C          C       0.53007   0.91638   0.80675  -0.0932610000
C          C       0.84480   0.63482   0.83220  -0.0907630000
C          C       0.49921   0.91279   0.82582  -0.1515930000
C          C       0.97596   0.96717   0.84757   0.1275640000
C          C       0.80963   0.63718   0.83436  -0.0906480000
C          C       0.79027   0.85089   0.32193  -0.0671740000
C          C       0.79913   0.61347   0.85136  -0.1486220000
C          C       0.78070   0.96601   0.82279  -0.0906760000
C          C       0.81023   0.86885   0.31077  -0.2367320000
C          C       0.83209   0.96330   0.30299  -0.0321550000
C          C       0.92171   0.84125   0.99242  -0.0900020000
C          C       0.91133   0.85659   0.02508  -0.0905910000
C          C       0.78280   0.57671   0.34304  -0.0729150000
C          C       0.87821   0.93638   0.24747  -0.0323350000
C          C       0.78714   0.85630   0.38362  -0.0702920000
C          C       0.80837   0.98147   0.85726   0.1236050000
C          C       0.78024   0.52154   0.01045   0.1262930000
C          C       0.85502   0.95132   0.19411   0.2569140000
C          C       0.89297   0.92046   0.30837  -0.0353600000
C          C       0.89399   0.94483   0.13510  -0.0629760000
C          C       0.81812   0.88098   0.33640   0.2630600000
C          C       0.84856   0.90655   0.29114  -0.0320560000
C          C       0.82368   0.51618   0.31256   0.2597260000
C          C       0.76107   0.52460   0.04643  -0.1556270000
C          C       0.86349   0.95877   0.12003  -0.0745880000
C          C       0.86870   0.96266   0.08069   0.5432630000
C          C       0.76194   0.53594   0.98230   0.1260260000
C          C       0.78787   0.52459   0.33249  -0.2405120000
C          C       0.83811   0.95042   0.85412   0.1215410000
C          C       0.53627   0.81847   0.36602   0.5393280000
C          C       0.76050   0.60850   0.35965   0.5380410000
C          C       0.50909   0.83053   0.31243  -0.0746480000
C          C       0.50663   0.83776   0.34700  -0.0703630000
C          C       0.98129   0.84926   0.29483  -0.2166880000
C          C       0.94772   0.88321   0.34616  -0.2331050000
C          C       0.75736   0.82529   0.36881   0.5405130000
C          C       0.89008   0.94130   0.17201  -0.2325410000
C          C       0.76784   0.55471   0.34762  -0.0685600000
C          C       0.89511   0.90736   0.99386   0.1232030000
C          C       0.82850   0.96893   0.14261  -0.0699640000
C          C       0.70522   0.55669   0.02437  -0.0857940000
C          C       0.72359   0.54254   0.05259  -0.0818360000
C          C       0.83895   0.53809   0.30757  -0.2171190000
C          C       0.89818   0.88963   0.02651  -0.1500690000
C          C       0.83970   0.92641   0.83502  -0.1566910000
C          C       0.97593   0.86432   0.36337  -0.0619220000
C          C       0.81049   0.93480   0.81976  -0.0906200000
C          C       0.77908   0.98986   0.84124  -0.1512910000
C          C       0.77843   0.84456   0.35822  -0.0695360000
C          C       0.81861   0.56805   0.32269  -0.0782890000
C          C       0.91943   0.85846   0.96007  -0.1501310000
C          C       0.97183   0.93892   0.84635   0.1289950000
C          C       0.90570   0.89210   0.96129   0.1275110000
C          C       0.72375   0.55366   0.98888  -0.1522980000
C          C       0.95026   0.87542   0.31191   0.2562460000
C          C       0.82420   0.96503   0.17936  -0.2149710000
C          C       0.91616   0.51028  -0.00022   0.1263930000
C          C       0.93224   0.52368   0.96892   0.1242390000
C          C       0.95547   0.53724   0.97044  -0.1597500000
C          C       0.96213   0.53630   0.00357  -0.0810830000
C          C       0.94643   0.52243   0.03443  -0.0917600000
C          C       0.92329   0.50930   0.03329  -0.1536870000
N          N       0.58896   0.77024   0.44113  -0.2061580000
N          N       0.67955   0.75657   0.49496  -0.2094750000
N          N       0.61908   0.75599   0.45406  -0.0150650000
N          N       0.61090   0.74988   0.48926  -0.2012440000
N          N       0.68832   0.76153   0.45963  -0.0148460000
N          N       0.70706   0.77916   0.45102  -0.2093280000
N          N       0.74813   0.74808   0.37807  -0.2014890000
N          N       0.73127   0.72889   0.38698  -0.0137160000
N          N       0.75261   0.69998   0.37300  -0.2133830000
N          N       0.68442   0.69348   0.36798  -0.2021750000
N          N       0.66335   0.72255   0.38185  -0.0117880000
N          N       0.63269   0.73745   0.37004  -0.2062340000
N          N       0.62546   0.80564   0.38034  -0.2014240000
N          N       0.65601   0.79140   0.39245  -0.0136240000
N          N       0.67415   0.80955   0.38432  -0.1983950000
N          N       0.68511   0.68971   0.48577  -0.2002980000
N          N       0.69498   0.69408   0.45049  -0.0181670000
N          N       0.71762   0.66593   0.43516  -0.2058280000
N          N       0.92057   0.52016   0.94108  -0.2074410000
N          N       0.81667   0.50653   0.99502  -0.2145790000
N          N       0.89835   0.50586   0.95398  -0.0154610000
N          N       0.89505   0.49978   0.98917  -0.2015900000
N          N       0.82043   0.51150   0.95971  -0.0120500000
N          N       0.78818   0.52904   0.95120  -0.2086170000
N          N       0.81483   0.99830   0.87806  -0.2033050000
N          N       0.84650   0.97898   0.88701  -0.0109220000
N          N       0.86124   0.95011   0.87296  -0.2099540000
N          N       0.93861   0.94346   0.86795  -0.2054920000
N          N       0.92350   0.97254   0.88184  -0.0100510000
N          N       0.94520   0.98733   0.87013  -0.2078660000
N          N       0.87885   0.55552   0.88045  -0.2030430000
N          N       0.85651   0.54133   0.89259  -0.0162250000
N          N       0.82409   0.55960   0.88469  -0.1975290000
N          N       0.88301   0.93966   0.98577  -0.2013740000
N          N       0.88610   0.94411   0.95053  -0.0176490000
N          N       0.89963   0.91597   0.93513  -0.2071100000
O          O       0.96806   0.54293   0.85093  -0.5441880000
O          O       0.93981   0.57680   0.89562  -0.5392640000
O          O       0.61925   0.70017   0.56042  -0.5496440000
O          O       0.64752   0.72854   0.56769  -0.5418030000
O          O       0.73168   0.56988   0.90422  -0.5372600000
O          O       0.76188   0.56551   0.84718  -0.5464320000
O          O       0.96663   0.86581   0.87679  -0.5442920000
O          O       0.91840   0.87919   0.85411  -0.5477060000
O          O       0.51747   0.73702   0.79695  -0.2081740000
O          O       0.58739   0.69851   0.73067  -0.2111310000
O          O       0.59874   0.64998   0.82847  -0.2042690000
O          O       0.53787   0.64164   0.79309  -0.2052740000
O          O       0.56383   0.79312   0.35098  -0.5449630000
O          O       0.53519   0.82685   0.39579  -0.5407050000
O          O       0.89997   0.95005   0.06049  -0.5480760000
O          O       0.83975   0.97984   0.06773  -0.5385880000
O          O       0.74759   0.81858   0.40269  -0.5389400000
O          O       0.74924   0.81549   0.34555  -0.5469240000
O          O       0.72872   0.61569   0.37841  -0.5416110000
O          O       0.77484   0.62888   0.35413  -0.5505330000
O          O       0.84602   0.98705   0.29697  -0.2078520000
O          O       0.84785   0.94851   0.23075  -0.2107900000
O          O       0.83638   0.89997   0.32830  -0.2037420000
O          O       0.92359   0.89180   0.29302  -0.2051860000
Zn         Zn      0.62848   0.50716   0.07893   0.4611270000
Zn         Zn      0.63804   0.52130   0.98394   0.6838390000
Zn         Zn      0.58875   0.58439   0.11888   0.6809720000
Zn         Zn      0.71435   0.95716   0.10139   0.6813570000
Zn         Zn      0.56979   0.96739   0.11194   0.6817650000
Zn         Zn      0.82516   0.75715   0.57888   0.4607360000
Zn         Zn      0.84795   0.77131   0.48398   0.6826250000
Zn         Zn      0.76679   0.83436   0.61883   0.6819170000
Zn         Zn      0.77765   0.70732   0.60151   0.6821470000
Zn         Zn      0.90646   0.71730   0.61195   0.6826150000
H          H       0.99009   0.50739   0.17101   0.1378190000
H          H       0.94108   0.55373   0.20781   0.1063910000
H          H       0.60247   0.89323   0.15463   0.1276990000
H          H       0.68596   0.61640   0.60793   0.1273690000
H          H       0.94793   0.60320   0.20936   0.1075260000
H          H       0.64854   0.84576   0.18137   0.1114380000
H          H       0.50370   0.60914   0.17410   0.1324560000
H          H       0.70947   0.84175   0.17784   0.1118580000
H          H       0.71647   0.65861   0.69735   0.1197480000
H          H       0.72744   0.88520   0.14740   0.1324330000
H          H       0.74144   0.52880   0.18979   0.1079840000
H          H       0.68063   0.62674   0.71751   0.1132320000
H          H       0.69051   0.52871   0.71029   0.0912920000
H          H       0.67775   0.54039   0.66828   0.0824910000
H          H       0.56795   0.68480   0.00706   0.1106780000
H          H       0.58590   0.65827   0.95042   0.1043030000
H          H       0.60997   0.54634   0.75699   0.0908750000
H          H       0.60062   0.58677   0.76351   0.0744520000
H          H       0.72187   0.64896   0.58825   0.1106300000
H          H       0.61853   0.58476   0.66387   0.0849300000
H          H       0.59819   0.56065   0.69228   0.0893220000
H          H       0.57903   0.56309   0.88260   0.1175760000
H          H       0.67400   0.58410   0.72243   0.0789030000
H          H       0.62970   0.61579   0.72132   0.0738990000
H          H       0.72461   0.98647   0.93219   0.1370530000
H          H       0.72438   0.99196   0.66375   0.1200250000
H          H       0.96672   0.68980   0.70037   0.1197570000
H          H       0.51700   0.65554   0.73216   0.1216500000
H          H       0.57572   0.59630   0.64057   0.1226320000
H          H       0.58582   0.56909   0.81701   0.1078230000
H          H       0.75991   0.93825   0.63666   0.1200820000
H          H       0.69504   0.52026   0.86926   0.1074920000
H          H       0.82427   0.92958   0.96897   0.0999630000
H          H       0.79237   0.95385   0.92008   0.0954430000
H          H       0.63329   0.96898   0.70807   0.1296320000
H          H       0.60862   0.59843   0.94894   0.1297230000
H          H       0.63724   0.59729   0.16710   0.1381740000
H          H       0.52537   0.63009   0.61009   0.1228100000
H          H       0.68979   0.58292   0.19505   0.1087580000
H          H       0.74306   0.98596   0.15697   0.1290170000
H          H       0.66990   0.91479   0.68090   0.1199550000
H          H       0.57179   0.65316   0.06506   0.1322600000
H          H       0.78985   0.93561   0.03302   0.1381930000
H          H       0.70262   0.52772   0.80278   0.1245940000
H          H       0.53314   0.95180   0.05322   0.1362270000
H          H       0.51977   0.95386   0.99391   0.1135990000
H          H       0.54696   0.97796   0.94036   0.1120400000
H          H       0.58823   0.50193   0.94341   0.1332390000
H          H       0.91662   0.75699   0.67131   0.1364470000
H          H       0.90053   0.80325   0.70826   0.1056770000
H          H       0.92717   0.64318   0.65484   0.1276260000
H          H       0.89491   0.86541   0.10752   0.1255240000
H          H       0.84318   0.85282   0.70975   0.1079850000
H          H       0.91525   0.59590   0.68200   0.1114720000
H          H       0.79921   0.85900   0.67430   0.1324230000
H          H       0.85991   0.59210   0.67882   0.1109520000
H          H       0.77655   0.90884   0.19608   0.1190450000
H          H       0.81348   0.63553   0.64835   0.1336350000
H          H       0.63393   0.77963   0.68930   0.1080200000
H          H       0.83409   0.87735   0.21681   0.1107510000
H          H       0.92640   0.77889   0.21063   0.0912090000
H          H       0.94834   0.79047   0.16848   0.0856330000
H          H       0.74101   0.93459   0.50660   0.1109680000
H          H       0.77798   0.90792   0.44998   0.1047110000
H          H       0.96598   0.79662   0.25700   0.0905270000
H          H       0.93116   0.83697   0.26359   0.0752700000
H          H       0.83638   0.89753   0.08721   0.1102400000
H          H       0.96567   0.83458   0.16387   0.0859680000
H          H       0.99578   0.81072   0.19261   0.0895350000
H          H       0.91684   0.81307   0.38283   0.1181960000
H          H       0.88113   0.83441   0.22232   0.0803700000
H          H       0.89424   0.86601   0.22108   0.0738050000
H          H       0.82234   0.73647   0.43233   0.1359510000
H          H       0.95210   0.74202   0.16477   0.1208420000
H          H       0.99258   0.94017   0.20018   0.1197970000
H          H       0.96080   0.90596   0.23192   0.1211080000
H          H       0.50875   0.84606   0.14082   0.1229780000
H          H       0.93722   0.81894   0.31725   0.1080800000
H          H       0.98360   0.68817   0.13810   0.1233480000
H          H       0.85005   0.77102   0.36920   0.1085340000
H          H       0.76208   0.67916   0.46958   0.0999850000
H          H       0.79364   0.70362   0.42051   0.0957600000
H          H       0.54508   0.71889   0.20757   0.1298870000
H          H       0.81678   0.84817   0.44872   0.1296510000
H          H       0.68112   0.84766   0.66683   0.1370330000
H          H       0.54040   0.87981   0.11038   0.1231780000
H          H       0.62875   0.83364   0.69457   0.1082500000
H          H       0.69181   0.73660   0.65670   0.1295640000
H          H       0.57607   0.66458   0.18075   0.1177630000
H          H       0.74062   0.90317   0.56477   0.1317350000
H          H       0.75845   0.68531   0.53354   0.1382380000
H          H       0.86878   0.77817   0.30272   0.1249720000
H          H       0.98836   0.70190   0.55325   0.1369130000
H          H       0.52940   0.70411   0.49399   0.1137090000
H          H       0.50482   0.72816   0.44042   0.1109280000
H          H       0.93792   0.75196   0.44339   0.1338790000
C          C       0.63670   0.56833   0.71259   0.0529400000
C          C       0.99258   0.52938   0.17200  -0.1599950000
C          C       0.67479   0.91322   0.13358   0.1274260000
C          C       0.96594   0.55515   0.19225  -0.0945300000
C          C       0.63962   0.91574   0.13608   0.1288740000
C          C       0.62928   0.89143   0.15323  -0.1545790000
C          C       0.69312   0.62562   0.62711  -0.2138590000
C          C       0.96993   0.58361   0.19324  -0.0933370000
C          C       0.65520   0.86518   0.16779  -0.0905630000
C          C       0.50079   0.58720   0.17417  -0.1519610000
C          C       0.52404   0.53282   0.15242   0.1274690000
C          C       0.69037   0.86281   0.16563  -0.0908830000
C          C       0.70973   0.64910   0.67806  -0.0675880000
C          C       0.70087   0.88652   0.14863  -0.1486740000
C          C       0.71930   0.53399   0.17720  -0.0907750000
C          C       0.68976   0.63115   0.68922  -0.2384070000
C          C       0.66790   0.53670   0.69700  -0.0325750000
C          C       0.57829   0.65874   0.00757  -0.0901880000
C          C       0.58867   0.64341   0.97491  -0.0904350000
C          C       0.71720   0.92329   0.65695  -0.0728480000
C          C       0.62179   0.56362   0.75252  -0.0321240000
C          C       0.71286   0.64369   0.61638  -0.0700980000
C          C       0.69162   0.51853   0.14273   0.1233740000
C          C       0.71975   0.97845   0.98954   0.1263460000
C          C       0.64497   0.54867   0.80588   0.2569080000
C          C       0.60703   0.57953   0.69162  -0.0351960000
C          C       0.60600   0.55516   0.86489  -0.0630450000
C          C       0.68187   0.61901   0.66359   0.2629860000
C          C       0.65143   0.59345   0.70885  -0.0323270000
C          C       0.67632   0.98381   0.68743   0.2599510000
C          C       0.73892   0.97540   0.95356  -0.1554940000
C          C       0.63650   0.54122   0.87996  -0.0745830000
C          C       0.63130   0.53734   0.91930   0.5435670000
C          C       0.73805   0.96406   0.01770   0.1261770000
C          C       0.71212   0.97541   0.66750  -0.2407370000
C          C       0.66188   0.54958   0.14587   0.1214840000
C          C       0.96373   0.68153   0.63397   0.5389820000
C          C       0.73949   0.89149   0.64034   0.5379170000
C          C       0.99091   0.66947   0.68756  -0.0747050000
C          C       0.99337   0.66224   0.65299  -0.0702940000
C          C       0.51871   0.65073   0.70516  -0.2166760000
C          C       0.55228   0.61678   0.65384  -0.2334000000
C          C       0.74264   0.67471   0.63118   0.5406910000
C          C       0.60991   0.55870   0.82798  -0.2325160000
C          C       0.73216   0.94528   0.65237  -0.0684310000
C          C       0.60489   0.59263   0.00613   0.1233410000
C          C       0.67149   0.53106   0.85738  -0.0699840000
C          C       0.79478   0.94331   0.97562  -0.0858400000
C          C       0.77640   0.95746   0.94740  -0.0818830000
C          C       0.66104   0.96191   0.69242  -0.2170850000
C          C       0.60181   0.61036   0.97348  -0.1500770000
C          C       0.66029   0.57359   0.16497  -0.1563050000
C          C       0.52407   0.63568   0.63662  -0.0616620000
C          C       0.68950   0.56520   0.18023  -0.0907690000
C          C       0.72091   0.51013   0.15875  -0.1512590000
C          C       0.72157   0.65543   0.64177  -0.0695380000
C          C       0.68139   0.93195   0.67730  -0.0782630000
C          C       0.58056   0.64153   0.03992  -0.1499730000
C          C       0.52817   0.56107   0.15365   0.1291540000
C          C       0.59429   0.60789   0.03870   0.1273090000
C          C       0.77625   0.94633   0.01111  -0.1525110000
C          C       0.54974   0.62458   0.68808   0.2563410000
C          C       0.67580   0.53497   0.82063  -0.2151640000
C          C       0.58384   0.98972   0.00022   0.1263590000
C          C       0.56775   0.97632   0.03107   0.1242000000
C          C       0.54453   0.96276   0.02955  -0.1598000000
C          C       0.53786   0.96369   0.99642  -0.0809440000
C          C       0.55357   0.97756   0.96556  -0.0914060000
C          C       0.57671   0.99069   0.96670  -0.1536960000
C          C       0.93931   0.81843   0.21266   0.0569030000
C          C       0.89153   0.77903   0.67228  -0.1608750000
C          C       0.84509   0.66332   0.63408   0.1274550000
C          C       0.88209   0.80475   0.69261  -0.0924410000
C          C       0.87658   0.66573   0.63640   0.1247370000
C          C       0.90279   0.64145   0.65359  -0.1539800000
C          C       0.86873   0.87489   0.12652  -0.2100820000
C          C       0.84899   0.83329   0.69356  -0.0934950000
C          C       0.89587   0.61531   0.66838  -0.0894190000
C          C       0.82414   0.83700   0.67435  -0.1511560000
C          C       0.86648   0.78262   0.65258   0.1313730000
C          C       0.86403   0.61306   0.66642  -0.0876190000
C          C       0.80264   0.89905   0.17696  -0.0666840000
C          C       0.83820   0.63675   0.64938  -0.1520510000
C          C       0.65728   0.78467   0.67681  -0.0896290000
C          C       0.83494   0.88130   0.18846  -0.2359990000
C          C       0.94765   0.78680   0.19717  -0.0348810000
C          C       0.75690   0.90856   0.50721  -0.0913390000
C          C       0.77823   0.89316   0.47457  -0.0896050000
C          C       0.53167   0.67312   0.15763  -0.0736720000
C          C       0.93894   0.81379   0.25259  -0.0332510000
C          C       0.83634   0.89273   0.11543  -0.0717020000
C          C       0.71797   0.76889   0.64258   0.1238300000
C          C       0.80686   0.72835   0.48972   0.1240850000
C          C       0.90402   0.79881   0.30597   0.2555620000
C          C       0.96829   0.82954   0.19170  -0.0395000000
C          C       0.90668   0.80528   0.36505  -0.0653180000
C          C       0.86807   0.86883   0.16309   0.2640400000
C          C       0.90122   0.84362   0.20875  -0.0348210000
C          C       0.99700   0.73380   0.18769   0.2603950000
C          C       0.80865   0.72530   0.45380  -0.1517690000
C          C       0.88239   0.79161   0.38004  -0.0741020000
C          C       0.87157   0.78787   0.41941   0.5460380000
C          C       0.78912   0.71390   0.51797   0.1268170000
C          C       0.97922   0.72540   0.16828  -0.2417330000
C          C       0.71501   0.79988   0.64572   0.1246850000
C          C       0.53769   0.93162   0.13407   0.5388190000
C          C       0.54928   0.64128   0.14120   0.5403390000
C          C       0.99549   0.91972   0.18746  -0.0738980000
C          C       0.51797   0.91229   0.15303  -0.0703980000
C          C       0.97771   0.90100   0.20503  -0.2156040000
C          C       0.50468   0.86667   0.15398  -0.2343010000
C          C       0.76788   0.92402   0.12963   0.5403250000
C          C       0.91792   0.80872   0.32815  -0.2317990000
C          C       0.99675   0.69520   0.15338  -0.0707870000
C          C       0.79820   0.84254   0.50602   0.1258210000
C          C       0.86892   0.78159   0.35737  -0.0706070000
C          C       0.77434   0.69299   0.47611  -0.0839980000
C          C       0.79240   0.70724   0.44778  -0.0842120000
C          C       0.53195   0.71181   0.19234  -0.2166790000
C          C       0.79938   0.86014   0.47327  -0.1531300000
C          C       0.68287   0.82402   0.66469  -0.1561130000
C          C       0.52252   0.88555   0.13679  -0.0631920000
C          C       0.65430   0.81581   0.67985  -0.0904880000
C          C       0.68893   0.76070   0.65848  -0.1520670000
C          C       0.80290   0.90483   0.14057  -0.0685540000
C          C       0.54902   0.68178   0.17743  -0.0763590000
C          C       0.75612   0.89146   0.53965  -0.1478520000
C          C       0.83335   0.81095   0.65374   0.1251230000
C          C       0.77718   0.85786   0.53857   0.1259370000
C          C       0.77215   0.69605   0.51155  -0.1533270000
C          C       0.98186   0.87468   0.18805   0.2574550000
C          C       0.87937   0.78534   0.32063  -0.2150790000
C          C       0.92608   0.73967   0.50018   0.1242680000
C          C       0.94020   0.72629   0.53104   0.1259770000
C          C       0.97783   0.71283   0.52955  -0.1585130000
C          C       0.50017   0.71385   0.49647  -0.0815120000
C          C       0.98598   0.72768   0.46559  -0.0907530000
C          C       0.94906   0.74071   0.46668  -0.1525060000
N          N       0.57943   0.97984   0.05891  -0.2071920000
N          N       0.68333   0.99347   0.00498  -0.2142710000
N          N       0.60165   0.99413   0.04601  -0.0161380000
N          N       0.60495   0.50022   0.01082  -0.2014750000
N          N       0.67957   0.98850   0.04028  -0.0118770000
N          N       0.71181   0.97095   0.04879  -0.2090570000
N          N       0.68516   0.50170   0.12193  -0.2032550000
N          N       0.65349   0.52101   0.11298  -0.0104100000
N          N       0.63876   0.54989   0.12703  -0.2098780000
N          N       0.56138   0.55652   0.13204  -0.2058730000
N          N       0.57649   0.52746   0.11815  -0.0103110000
N          N       0.55479   0.51267   0.12986  -0.2073910000
N          N       0.62115   0.94447   0.11954  -0.2026870000
N          N       0.64349   0.95866   0.10740  -0.0160920000
N          N       0.67591   0.94040   0.11530  -0.1981570000
N          N       0.61698   0.56033   0.01422  -0.2009870000
N          N       0.61389   0.55588   0.04947  -0.0177180000
N          N       0.60036   0.58403   0.06486  -0.2074000000
N          N       0.91104   0.72975   0.55886  -0.2065740000
N          N       0.82045   0.74343   0.50503  -0.2097460000
N          N       0.88092   0.74401   0.54593  -0.0149450000
N          N       0.88910   0.75011   0.51074  -0.2009480000
N          N       0.81167   0.73846   0.54036  -0.0154390000
N          N       0.79294   0.72083   0.54897  -0.2090460000
N          N       0.75187   0.75192   0.62192  -0.2011980000
N          N       0.76873   0.77111   0.61301  -0.0140860000
N          N       0.74739   0.80002   0.62699  -0.2135930000
N          N       0.81558   0.80651   0.63201  -0.2020660000
N          N       0.83665   0.77745   0.61814  -0.0111250000
N          N       0.86730   0.76254   0.62995  -0.2066630000
N          N       0.87453   0.69436   0.61965  -0.2019580000
N          N       0.84399   0.70859   0.60754  -0.0134520000
N          N       0.82584   0.69045   0.61568  -0.1979190000
N          N       0.81488   0.81029   0.51422  -0.2000280000
N          N       0.80501   0.80591   0.54950  -0.0183980000
N          N       0.78237   0.83406   0.56483  -0.2058370000
O          O       0.93617   0.70687   0.64901  -0.5450480000
O          O       0.96480   0.67314   0.60420  -0.5402040000
O          O       0.60003   0.54994   0.93950  -0.5480300000
O          O       0.66025   0.52015   0.93226  -0.5390560000
O          O       0.75241   0.68141   0.59730  -0.5386910000
O          O       0.75076   0.68451   0.65444  -0.5474190000
O          O       0.77128   0.88431   0.62158  -0.5418150000
O          O       0.72516   0.87112   0.64586  -0.5501900000
O          O       0.65397   0.51294   0.70302  -0.2076390000
O          O       0.65214   0.55148   0.76924  -0.2109300000
O          O       0.66362   0.60002   0.67169  -0.2033290000
O          O       0.57640   0.60819   0.70698  -0.2055770000
O          O       0.53194   0.95706   0.14906  -0.5442590000
O          O       0.56019   0.92319   0.10437  -0.5390860000
O          O       0.88075   0.79982   0.43957  -0.5502820000
O          O       0.85246   0.77146   0.43230  -0.5415150000
O          O       0.76832   0.93012   0.09577  -0.5371690000
O          O       0.73812   0.93449   0.15281  -0.5463650000
O          O       0.53337   0.63419   0.12320  -0.5437460000
O          O       0.58159   0.62080   0.14588  -0.5481880000
O          O       0.98253   0.76298   0.20304  -0.2087650000
O          O       0.91261   0.80149   0.26932  -0.2105760000
O          O       0.90126   0.85001   0.17152  -0.2042820000
O          O       0.96212   0.85835   0.20690  -0.2051860000
