data_crystal
 
_cell_length_a    26.52900
_cell_length_b    26.52900
_cell_length_c    26.52900
_cell_angle_alpha 90.00000
_cell_angle_beta  90.00000
_cell_angle_gamma 90.00000
 
_symmetry_space_group_name_Hall 'P 1'
_symmetry_space_group_name_H-M  'P 1'
 
loop_
_symmetry_equiv_pos_as_xyz
 'x,y,z' 
 
loop_
_atom_site_label
_atom_site_type_symbol
_atom_site_fract_x
_atom_site_fract_y
_atom_site_fract_z
_atom_site_charge
Cu         Cu      0.28264   0.28264   0.00000   0.9097170000
Cu         Cu      0.71740   0.28267   0.00000   0.9095670000
Cu         Cu      0.71738   0.71738   0.00000   0.9097830000
Cu         Cu      0.28267   0.71740   0.00000   0.9094750000
Cu         Cu      0.00000   0.28264   0.28264   0.9097350000
Cu         Cu      0.71740   0.00000   0.28267   0.9096120000
Cu         Cu      0.00001   0.71740   0.28267   0.9095810000
Cu         Cu      0.28264   0.00000   0.28264   0.9097050000
Cu         Cu      0.00001   0.71738   0.71738   0.9097990000
Cu         Cu      0.28267   0.00001   0.71740   0.9094360000
Cu         Cu      0.00001   0.28267   0.71740   0.9095170000
Cu         Cu      0.71738   0.00001   0.71738   0.9098220000
Cu         Cu      0.28264   0.78265   0.50001   0.9099290000
Cu         Cu      0.71740   0.78268   0.50001   0.9097660000
Cu         Cu      0.71738   0.21737   0.50001   0.9099430000
Cu         Cu      0.28267   0.21739   0.50001   0.9098490000
Cu         Cu      0.00001   0.78265   0.78265   0.9098020000
Cu         Cu      0.71740   0.50001   0.78268   0.9098140000
Cu         Cu      0.00001   0.21739   0.78268   0.9097840000
Cu         Cu      0.28264   0.50001   0.78265   0.9099750000
Cu         Cu      0.00001   0.21737   0.21737   0.9098450000
Cu         Cu      0.28267   0.50001   0.21739   0.9098360000
Cu         Cu      0.00001   0.78268   0.21739   0.9097570000
Cu         Cu      0.71738   0.50001   0.21737   0.9099330000
Cu         Cu      0.78265   0.28264   0.50001   0.9099230000
Cu         Cu      0.21739   0.28267   0.50001   0.9098430000
Cu         Cu      0.21737   0.71738   0.50001   0.9099820000
Cu         Cu      0.78268   0.71740   0.50001   0.9097260000
Cu         Cu      0.50001   0.28264   0.78265   0.9099550000
Cu         Cu      0.21739   0.00001   0.78268   0.9098310000
Cu         Cu      0.50002   0.71740   0.78268   0.9097310000
Cu         Cu      0.78265   0.00001   0.78265   0.9097970000
Cu         Cu      0.50002   0.71738   0.21737   0.9099260000
Cu         Cu      0.78268   0.00000   0.21739   0.9096330000
Cu         Cu      0.50001   0.28267   0.21739   0.9097730000
Cu         Cu      0.21737   0.00001   0.21737   0.9098180000
Cu         Cu      0.78265   0.78265   0.00000   0.9098030000
Cu         Cu      0.21739   0.78268   0.00000   0.9097220000
Cu         Cu      0.21737   0.21737   0.00000   0.9098450000
Cu         Cu      0.78268   0.21739   0.00000   0.9097040000
Cu         Cu      0.50001   0.78265   0.28264   0.9099500000
Cu         Cu      0.21739   0.50001   0.28267   0.9098740000
Cu         Cu      0.50001   0.21739   0.28267   0.9098500000
Cu         Cu      0.78265   0.50001   0.28264   0.9099380000
Cu         Cu      0.50002   0.21737   0.71738   0.9099290000
Cu         Cu      0.78268   0.50001   0.71740   0.9096480000
Cu         Cu      0.50002   0.78268   0.71740   0.9098410000
Cu         Cu      0.21737   0.50001   0.71738   0.9099570000
H          H       0.38117   0.23366   0.88118   0.1426060000
H          H       0.76648   0.38129   0.88130   0.1425310000
H          H       0.61871   0.76650   0.88132   0.1427860000
H          H       0.23363   0.61881   0.88121   0.1426220000
H          H       0.38131   0.76650   0.11870   0.1429450000
H          H       0.23363   0.38120   0.11880   0.1426550000
H          H       0.61880   0.23361   0.11879   0.1426630000
H          H       0.76652   0.61870   0.11869   0.1428370000
H          H       0.88118   0.38117   0.23366   0.1426310000
H          H       0.61881   0.88121   0.23363   0.1426040000
H          H       0.11879   0.61880   0.23361   0.1426350000
H          H       0.38120   0.11881   0.23363   0.1426280000
H          H       0.88132   0.61870   0.76650   0.1429260000
H          H       0.38129   0.88130   0.76648   0.1427190000
H          H       0.11870   0.38131   0.76650   0.1428620000
H          H       0.61870   0.11869   0.76652   0.1428430000
H          H       0.23366   0.88118   0.38117   0.1426720000
H          H       0.23361   0.11879   0.61880   0.1426610000
H          H       0.88121   0.23363   0.61881   0.1426430000
H          H       0.76650   0.88132   0.61870   0.1427960000
H          H       0.11869   0.76652   0.61870   0.1428370000
H          H       0.76650   0.11870   0.38131   0.1428430000
H          H       0.88130   0.76648   0.38129   0.1426450000
H          H       0.11881   0.23363   0.38120   0.1426230000
H          H       0.61870   0.76652   0.11869   0.1428600000
H          H       0.23361   0.61880   0.11879   0.1426640000
H          H       0.38120   0.23363   0.11880   0.1426370000
H          H       0.76650   0.38131   0.11870   0.1428510000
H          H       0.61881   0.23363   0.88121   0.1426180000
H          H       0.76650   0.61871   0.88132   0.1427460000
H          H       0.38129   0.76648   0.88130   0.1425660000
H          H       0.23366   0.38117   0.88118   0.1426120000
H          H       0.11869   0.61870   0.76652   0.1428320000
H          H       0.38131   0.11870   0.76650   0.1428700000
H          H       0.88130   0.38129   0.76648   0.1427100000
H          H       0.61871   0.88132   0.76650   0.1428290000
H          H       0.11881   0.38120   0.23363   0.1426240000
H          H       0.61880   0.11879   0.23361   0.1426530000
H          H       0.88121   0.61881   0.23363   0.1426150000
H          H       0.38117   0.88118   0.23366   0.1426280000
H          H       0.76652   0.11869   0.61870   0.1428420000
H          H       0.76648   0.88130   0.38129   0.1425030000
H          H       0.11870   0.76650   0.38131   0.1428130000
H          H       0.23363   0.11881   0.38120   0.1426360000
H          H       0.88118   0.23366   0.38117   0.1426300000
H          H       0.23363   0.88121   0.61881   0.1426350000
H          H       0.11879   0.23361   0.61880   0.1426510000
H          H       0.88132   0.76650   0.61870   0.1429000000
H          H       0.38117   0.73367   0.38117   0.1425820000
H          H       0.61871   0.26649   0.38131   0.1427580000
H          H       0.38131   0.26649   0.61870   0.1429010000
H          H       0.61880   0.73362   0.61880   0.1426180000
H          H       0.88118   0.88118   0.73367   0.1426050000
H          H       0.61881   0.38120   0.73364   0.1426010000
H          H       0.11879   0.11879   0.73361   0.1425830000
H          H       0.38120   0.61881   0.73364   0.1426140000
H          H       0.88132   0.11870   0.26649   0.1427570000
H          H       0.38129   0.38129   0.26647   0.1426000000
H          H       0.11870   0.88132   0.26649   0.1426810000
H          H       0.61870   0.61870   0.26651   0.1428230000
H          H       0.88121   0.73364   0.11880   0.1425860000
H          H       0.11869   0.26651   0.11869   0.1427860000
H          H       0.88130   0.26647   0.88130   0.1424710000
H          H       0.11881   0.73364   0.88121   0.1425740000
H          H       0.61870   0.26651   0.61870   0.1427940000
H          H       0.38120   0.73364   0.61881   0.1426410000
H          H       0.61881   0.73364   0.38120   0.1425920000
H          H       0.38129   0.26647   0.38129   0.1425490000
H          H       0.11869   0.11869   0.26651   0.1427920000
H          H       0.38131   0.61870   0.26649   0.1429140000
H          H       0.88130   0.88130   0.26647   0.1425120000
H          H       0.61871   0.38131   0.26649   0.1428660000
H          H       0.11881   0.88121   0.73364   0.1425700000
H          H       0.61880   0.61880   0.73361   0.1425820000
H          H       0.88121   0.11881   0.73364   0.1426010000
H          H       0.38117   0.38117   0.73367   0.1425600000
H          H       0.11870   0.26649   0.88132   0.1426720000
H          H       0.88118   0.73367   0.88118   0.1426070000
H          H       0.11879   0.73361   0.11879   0.1425820000
H          H       0.88132   0.26649   0.11870   0.1427470000
H          H       0.26647   0.38129   0.38129   0.1424960000
H          H       0.73364   0.61881   0.38120   0.1426240000
H          H       0.73364   0.38120   0.61881   0.1426380000
H          H       0.26651   0.61870   0.61870   0.1427690000
H          H       0.73367   0.88118   0.88118   0.1426220000
H          H       0.73361   0.11879   0.11879   0.1426170000
H          H       0.26649   0.88132   0.11870   0.1426730000
H          H       0.26649   0.11870   0.88132   0.1426530000
H          H       0.73362   0.61880   0.61880   0.1426910000
H          H       0.26649   0.38131   0.61870   0.1428180000
H          H       0.26649   0.61870   0.38131   0.1426860000
H          H       0.73367   0.38117   0.38117   0.1425710000
H          H       0.26651   0.11869   0.11869   0.1427780000
H          H       0.26647   0.88130   0.88130   0.1424160000
H          H       0.73364   0.11881   0.88121   0.1425930000
H          H       0.73364   0.88121   0.11880   0.1426150000
C          C       0.32190   0.17811   0.88652  -0.0409780000
C          C       0.29709   0.20292   0.93051   0.5867400000
C          C       0.36500   0.19968   0.86500  -0.0728150000
C          C       0.82195   0.32194   0.88655  -0.0410500000
C          C       0.67812   0.82191   0.88652  -0.0411220000
C          C       0.17815   0.67815   0.88649  -0.0405040000
C          C       0.32196   0.82196   0.11346  -0.0410280000
C          C       0.17810   0.32192   0.11350  -0.0408120000
C          C       0.67814   0.17814   0.11352  -0.0409940000
C          C       0.82193   0.67811   0.11350  -0.0411150000
C          C       0.88652   0.32190   0.17811  -0.0410180000
C          C       0.67815   0.88649   0.17814  -0.0406220000
C          C       0.11353   0.67814   0.17813  -0.0411050000
C          C       0.32192   0.11350   0.17810  -0.0408480000
C          C       0.88652   0.67812   0.82191  -0.0410770000
C          C       0.32194   0.88655   0.82195  -0.0409320000
C          C       0.11346   0.32196   0.82196  -0.0410800000
C          C       0.67811   0.11350   0.82193  -0.0410040000
C          C       0.17811   0.88652   0.32190  -0.0410500000
C          C       0.17814   0.11353   0.67814  -0.0410710000
C          C       0.88650   0.17815   0.67815  -0.0405830000
C          C       0.82191   0.88652   0.67812  -0.0412580000
C          C       0.11350   0.82193   0.67811  -0.0410900000
C          C       0.82196   0.11346   0.32196  -0.0410090000
C          C       0.88655   0.82195   0.32194  -0.0408530000
C          C       0.11350   0.17810   0.32192  -0.0408260000
C          C       0.67811   0.82193   0.11350  -0.0410030000
C          C       0.17814   0.67814   0.11352  -0.0409950000
C          C       0.32192   0.17810   0.11350  -0.0408150000
C          C       0.82196   0.32196   0.11346  -0.0410020000
C          C       0.67815   0.17815   0.88649  -0.0405160000
C          C       0.82191   0.67812   0.88652  -0.0411930000
C          C       0.32194   0.82195   0.88655  -0.0409250000
C          C       0.17811   0.32190   0.88652  -0.0409620000
C          C       0.11350   0.67811   0.82193  -0.0410520000
C          C       0.32196   0.11346   0.82196  -0.0410810000
C          C       0.88655   0.32194   0.82195  -0.0409620000
C          C       0.67812   0.88652   0.82191  -0.0410820000
C          C       0.11350   0.32192   0.17810  -0.0408890000
C          C       0.67814   0.11352   0.17813  -0.0409820000
C          C       0.88650   0.67815   0.17814  -0.0406510000
C          C       0.32190   0.88652   0.17811  -0.0410990000
C          C       0.82193   0.11350   0.67811  -0.0410960000
C          C       0.82195   0.88655   0.32194  -0.0409630000
C          C       0.11346   0.82196   0.32196  -0.0410800000
C          C       0.17810   0.11350   0.32192  -0.0408270000
C          C       0.88652   0.17811   0.32190  -0.0410240000
C          C       0.17815   0.88650   0.67815  -0.0404770000
C          C       0.11353   0.17814   0.67814  -0.0411100000
C          C       0.88652   0.82191   0.67812  -0.0411500000
C          C       0.32190   0.67812   0.38651  -0.0410920000
C          C       0.82195   0.82195   0.38654  -0.0409120000
C          C       0.67812   0.32190   0.38651  -0.0410830000
C          C       0.17815   0.17815   0.38649  -0.0406700000
C          C       0.32196   0.32196   0.61347  -0.0411160000
C          C       0.17810   0.82193   0.61351  -0.0408520000
C          C       0.67815   0.67814   0.61353  -0.0410010000
C          C       0.82193   0.17810   0.61351  -0.0409310000
C          C       0.67815   0.38649   0.67815  -0.0406360000
C          C       0.32192   0.61351   0.67811  -0.0410550000
C          C       0.32194   0.38654   0.32194  -0.0410240000
C          C       0.67811   0.61351   0.32192  -0.0409020000
C          C       0.17811   0.38651   0.82191  -0.0410000000
C          C       0.17814   0.61353   0.17813  -0.0410040000
C          C       0.82191   0.38651   0.17811  -0.0410300000
C          C       0.82197   0.61347   0.82196  -0.0409280000
C          C       0.67811   0.32192   0.61351  -0.0409010000
C          C       0.17814   0.17814   0.61353  -0.0408840000
C          C       0.32192   0.67811   0.61351  -0.0408790000
C          C       0.82197   0.82196   0.61347  -0.0409980000
C          C       0.67815   0.67815   0.38649  -0.0406350000
C          C       0.82191   0.17811   0.38651  -0.0410260000
C          C       0.32194   0.32194   0.38654  -0.0411930000
C          C       0.17811   0.82191   0.38651  -0.0409960000
C          C       0.32196   0.61347   0.32196  -0.0410170000
C          C       0.67812   0.38651   0.32190  -0.0410980000
C          C       0.67815   0.61353   0.67814  -0.0409530000
C          C       0.32190   0.38651   0.67812  -0.0410990000
C          C       0.82193   0.61351   0.17810  -0.0410310000
C          C       0.82195   0.38654   0.82195  -0.0409760000
C          C       0.17810   0.61351   0.82193  -0.0408460000
C          C       0.17815   0.38649   0.17814  -0.0406590000
C          C       0.38651   0.32190   0.67812  -0.0411350000
C          C       0.61353   0.67814   0.67814  -0.0411280000
C          C       0.38651   0.67812   0.32190  -0.0410520000
C          C       0.61347   0.32196   0.32196  -0.0410330000
C          C       0.38649   0.17814   0.17814  -0.0406790000
C          C       0.61351   0.82193   0.17810  -0.0409190000
C          C       0.38654   0.82195   0.82195  -0.0410300000
C          C       0.61351   0.17810   0.82193  -0.0409350000
C          C       0.61351   0.67811   0.32192  -0.0410780000
C          C       0.38654   0.32194   0.32194  -0.0409820000
C          C       0.61351   0.32192   0.67811  -0.0411230000
C          C       0.38649   0.67815   0.67815  -0.0406390000
C          C       0.61347   0.82197   0.82196  -0.0409360000
C          C       0.38651   0.17811   0.82191  -0.0410620000
C          C       0.61353   0.17814   0.17813  -0.0410210000
C          C       0.38651   0.82191   0.17811  -0.0410140000
C          C       0.79714   0.29713   0.93053   0.5865520000
C          C       0.70293   0.79710   0.93051   0.5866870000
C          C       0.20296   0.70297   0.93049   0.5867500000
C          C       0.29714   0.79715   0.06948   0.5867090000
C          C       0.20291   0.29711   0.06950   0.5865000000
C          C       0.70295   0.20294   0.06952   0.5871500000
C          C       0.79711   0.70292   0.06950   0.5865530000
C          C       0.93051   0.29709   0.20292   0.5866980000
C          C       0.70297   0.93049   0.20296   0.5867530000
C          C       0.06952   0.70295   0.20294   0.5873060000
C          C       0.29711   0.06950   0.20291   0.5864910000
C          C       0.93051   0.70293   0.79710   0.5865460000
C          C       0.29713   0.93053   0.79714   0.5865820000
C          C       0.06948   0.29714   0.79715   0.5867010000
C          C       0.70292   0.06950   0.79711   0.5865610000
C          C       0.20292   0.93051   0.29709   0.5866980000
C          C       0.20295   0.06952   0.70295   0.5873250000
C          C       0.93049   0.20296   0.70297   0.5867580000
C          C       0.79710   0.93051   0.70293   0.5868580000
C          C       0.06950   0.79711   0.70292   0.5866270000
C          C       0.79715   0.06948   0.29714   0.5867050000
C          C       0.93053   0.79714   0.29713   0.5861070000
C          C       0.06950   0.20291   0.29711   0.5865110000
C          C       0.70292   0.79711   0.06950   0.5865590000
C          C       0.20295   0.70295   0.06952   0.5871350000
C          C       0.29711   0.20291   0.06950   0.5865000000
C          C       0.79715   0.29714   0.06948   0.5867170000
C          C       0.70297   0.20296   0.93049   0.5867020000
C          C       0.79710   0.70293   0.93051   0.5867610000
C          C       0.29713   0.79714   0.93053   0.5865840000
C          C       0.20292   0.29709   0.93051   0.5866590000
C          C       0.06950   0.70292   0.79711   0.5866040000
C          C       0.29714   0.06948   0.79715   0.5867240000
C          C       0.93053   0.29713   0.79714   0.5863430000
C          C       0.70293   0.93051   0.79710   0.5865080000
C          C       0.06950   0.29711   0.20291   0.5864890000
C          C       0.70295   0.06952   0.20294   0.5872270000
C          C       0.93049   0.70297   0.20296   0.5867820000
C          C       0.29709   0.93051   0.20292   0.5868900000
C          C       0.79711   0.06950   0.70292   0.5865520000
C          C       0.79714   0.93053   0.29713   0.5862370000
C          C       0.06948   0.79715   0.29714   0.5866930000
C          C       0.20291   0.06950   0.29711   0.5865100000
C          C       0.93051   0.20292   0.29709   0.5867290000
C          C       0.20296   0.93049   0.70297   0.5868540000
C          C       0.06952   0.20295   0.70295   0.5872970000
C          C       0.93051   0.79710   0.70293   0.5866610000
C          C       0.29709   0.70293   0.43050   0.5866950000
C          C       0.79714   0.79714   0.43052   0.5860790000
C          C       0.70293   0.29709   0.43050   0.5866620000
C          C       0.20296   0.20296   0.43048   0.5867480000
C          C       0.29714   0.29714   0.56949   0.5868120000
C          C       0.20291   0.79711   0.56951   0.5864470000
C          C       0.70295   0.70295   0.56953   0.5870270000
C          C       0.79711   0.20291   0.56951   0.5865290000
C          C       0.70297   0.43048   0.70297   0.5866050000
C          C       0.29711   0.56951   0.70292   0.5866780000
C          C       0.29713   0.43052   0.29713   0.5861370000
C          C       0.70292   0.56951   0.29711   0.5866320000
C          C       0.20292   0.43050   0.79710   0.5862930000
C          C       0.20295   0.56953   0.20294   0.5870570000
C          C       0.79710   0.43050   0.20292   0.5865250000
C          C       0.79715   0.56949   0.79715   0.5865230000
C          C       0.70292   0.29711   0.56951   0.5865490000
C          C       0.20295   0.20295   0.56953   0.5870620000
C          C       0.29711   0.70292   0.56951   0.5866040000
C          C       0.79715   0.79715   0.56949   0.5864700000
C          C       0.70297   0.70297   0.43048   0.5867030000
C          C       0.79710   0.20292   0.43050   0.5864920000
C          C       0.29713   0.29713   0.43052   0.5862120000
C          C       0.20292   0.79710   0.43050   0.5864420000
C          C       0.29714   0.56949   0.29714   0.5866470000
C          C       0.70293   0.43050   0.29709   0.5866480000
C          C       0.70295   0.56953   0.70295   0.5870520000
C          C       0.29709   0.43050   0.70293   0.5867030000
C          C       0.79711   0.56951   0.20291   0.5866810000
C          C       0.79714   0.43052   0.79714   0.5860990000
C          C       0.20291   0.56951   0.79711   0.5864760000
C          C       0.20296   0.43048   0.20296   0.5866690000
C          C       0.43050   0.29709   0.70293   0.5867140000
C          C       0.56953   0.70295   0.70295   0.5872240000
C          C       0.43050   0.70293   0.29709   0.5866320000
C          C       0.56949   0.29714   0.29714   0.5866890000
C          C       0.43048   0.20296   0.20296   0.5865680000
C          C       0.56951   0.79711   0.20291   0.5865010000
C          C       0.43053   0.79714   0.79714   0.5860420000
C          C       0.56951   0.20291   0.79711   0.5865780000
C          C       0.56951   0.70292   0.29711   0.5865810000
C          C       0.43052   0.29713   0.29713   0.5860530000
C          C       0.56951   0.29711   0.70292   0.5866220000
C          C       0.43048   0.70297   0.70297   0.5866890000
C          C       0.56949   0.79715   0.79715   0.5866890000
C          C       0.43050   0.20292   0.79710   0.5863040000
C          C       0.56953   0.20294   0.20294   0.5870630000
C          C       0.43050   0.79710   0.20292   0.5863700000
C          C       0.80041   0.36506   0.86507  -0.0726890000
C          C       0.63496   0.80041   0.86507  -0.0728140000
C          C       0.19968   0.63503   0.86501  -0.0729970000
C          C       0.36507   0.80041   0.13495  -0.0727680000
C          C       0.19968   0.36501   0.13502  -0.0730330000
C          C       0.63502   0.19968   0.13501  -0.0728530000
C          C       0.80041   0.63496   0.13495  -0.0726750000
C          C       0.86500   0.36499   0.19968  -0.0729360000
C          C       0.63503   0.86501   0.19968  -0.0729800000
C          C       0.13501   0.63502   0.19968  -0.0727360000
C          C       0.36501   0.13502   0.19968  -0.0730180000
C          C       0.86508   0.63496   0.80041  -0.0727560000
C          C       0.36506   0.86507   0.80040  -0.0726630000
C          C       0.13495   0.36507   0.80041  -0.0727090000
C          C       0.63496   0.13495   0.80041  -0.0727540000
C          C       0.19968   0.86500   0.36499  -0.0729000000
C          C       0.19968   0.13501   0.63502  -0.0728020000
C          C       0.86501   0.19968   0.63502  -0.0729330000
C          C       0.80041   0.86508   0.63496  -0.0726680000
C          C       0.13495   0.80041   0.63496  -0.0727480000
C          C       0.80041   0.13495   0.36507  -0.0727630000
C          C       0.86507   0.80040   0.36506  -0.0727700000
C          C       0.13502   0.19968   0.36501  -0.0730540000
C          C       0.63496   0.80041   0.13495  -0.0727560000
C          C       0.19968   0.63502   0.13501  -0.0727890000
C          C       0.36501   0.19968   0.13502  -0.0730220000
C          C       0.80041   0.36507   0.13495  -0.0727650000
C          C       0.63503   0.19968   0.86501  -0.0729850000
C          C       0.80041   0.63496   0.86507  -0.0727630000
C          C       0.36506   0.80041   0.86507  -0.0726730000
C          C       0.19968   0.36500   0.86500  -0.0728050000
C          C       0.13495   0.63496   0.80041  -0.0727760000
C          C       0.36507   0.13495   0.80041  -0.0726660000
C          C       0.86507   0.36506   0.80040  -0.0726650000
C          C       0.63496   0.86508   0.80041  -0.0727110000
C          C       0.13502   0.36501   0.19968  -0.0730420000
C          C       0.63502   0.13501   0.19968  -0.0728500000
C          C       0.86501   0.63503   0.19968  -0.0729010000
C          C       0.36500   0.86500   0.19968  -0.0728950000
C          C       0.80041   0.13495   0.63496  -0.0727280000
C          C       0.80041   0.86507   0.36506  -0.0727490000
C          C       0.13495   0.80041   0.36507  -0.0727610000
C          C       0.19968   0.13502   0.36501  -0.0730310000
C          C       0.86500   0.19968   0.36499  -0.0729280000
C          C       0.19968   0.86501   0.63502  -0.0729740000
C          C       0.13501   0.19968   0.63502  -0.0727750000
C          C       0.86508   0.80041   0.63496  -0.0726890000
C          C       0.36500   0.69969   0.36499  -0.0728640000
C          C       0.63496   0.30040   0.36507  -0.0727290000
C          C       0.36507   0.30040   0.63496  -0.0728120000
C          C       0.63502   0.69969   0.63502  -0.0727880000
C          C       0.86500   0.86500   0.69969  -0.0729520000
C          C       0.63503   0.36501   0.69969  -0.0729600000
C          C       0.13501   0.13501   0.69968  -0.0728700000
C          C       0.36501   0.63503   0.69969  -0.0729580000
C          C       0.86508   0.13495   0.30040  -0.0728360000
C          C       0.36506   0.36506   0.30040  -0.0726290000
C          C       0.13495   0.86507   0.30040  -0.0727540000
C          C       0.63496   0.63496   0.30040  -0.0727820000
C          C       0.86501   0.69969   0.13502  -0.0730270000
C          C       0.13495   0.30040   0.13495  -0.0729060000
C          C       0.86507   0.30040   0.86507  -0.0727870000
C          C       0.13502   0.69969   0.86501  -0.0731280000
C          C       0.63496   0.30040   0.63496  -0.0727630000
C          C       0.36501   0.69969   0.63503  -0.0729820000
C          C       0.63503   0.69969   0.36501  -0.0729580000
C          C       0.36506   0.30040   0.36506  -0.0725890000
C          C       0.13495   0.13495   0.30040  -0.0729470000
C          C       0.36507   0.63496   0.30040  -0.0728270000
C          C       0.86507   0.86507   0.30040  -0.0727610000
C          C       0.63496   0.36507   0.30040  -0.0727810000
C          C       0.13502   0.86501   0.69969  -0.0731740000
C          C       0.63502   0.63502   0.69968  -0.0727980000
C          C       0.86501   0.13502   0.69969  -0.0731170000
C          C       0.36500   0.36499   0.69969  -0.0727870000
C          C       0.13495   0.30040   0.86507  -0.0729300000
C          C       0.86500   0.69969   0.86500  -0.0729130000
C          C       0.13501   0.69968   0.13501  -0.0728930000
C          C       0.86508   0.30040   0.13495  -0.0728310000
C          C       0.30040   0.36506   0.36506  -0.0725790000
C          C       0.69969   0.63503   0.36501  -0.0730050000
C          C       0.69969   0.36501   0.63503  -0.0729710000
C          C       0.30040   0.63496   0.63496  -0.0728660000
C          C       0.69969   0.86500   0.86500  -0.0729040000
C          C       0.69968   0.13501   0.13501  -0.0729130000
C          C       0.30040   0.86507   0.13495  -0.0728330000
C          C       0.30040   0.13495   0.86507  -0.0728930000
C          C       0.69969   0.63502   0.63502  -0.0728990000
C          C       0.30040   0.36507   0.63496  -0.0727900000
C          C       0.30040   0.63496   0.36507  -0.0727220000
C          C       0.69969   0.36499   0.36499  -0.0728550000
C          C       0.30040   0.13495   0.13495  -0.0729350000
C          C       0.30040   0.86507   0.86507  -0.0729200000
C          C       0.69969   0.13502   0.86501  -0.0731040000
C          C       0.69969   0.86501   0.13502  -0.0730480000
O          O       0.31765   0.24327   0.94722  -0.5352270000
O          O       0.75678   0.31768   0.94723  -0.5348880000
O          O       0.68237   0.75675   0.94722  -0.5351660000
O          O       0.24331   0.68240   0.94721  -0.5350970000
O          O       0.31769   0.75678   0.05279  -0.5348140000
O          O       0.24327   0.31766   0.05280  -0.5352180000
O          O       0.68239   0.24330   0.05281  -0.5353120000
O          O       0.75676   0.68236   0.05280  -0.5348440000
O          O       0.94722   0.31765   0.24327  -0.5353630000
O          O       0.68240   0.94721   0.24331  -0.5353980000
O          O       0.05281   0.68239   0.24330  -0.5353580000
O          O       0.31766   0.05280   0.24327  -0.5351960000
O          O       0.94722   0.68237   0.75675  -0.5348840000
O          O       0.31768   0.94723   0.75678  -0.5347370000
O          O       0.05279   0.31769   0.75678  -0.5348310000
O          O       0.68236   0.05280   0.75676  -0.5349080000
O          O       0.24327   0.94722   0.31765  -0.5352770000
O          O       0.24330   0.05281   0.68239  -0.5352560000
O          O       0.94721   0.24331   0.68240  -0.5351010000
O          O       0.75675   0.94722   0.68237  -0.5351620000
O          O       0.05280   0.75676   0.68236  -0.5349090000
O          O       0.75679   0.05279   0.31769  -0.5350030000
O          O       0.94723   0.75678   0.31768  -0.5348070000
O          O       0.05280   0.24327   0.31766  -0.5352260000
O          O       0.68236   0.75676   0.05280  -0.5348980000
O          O       0.24330   0.68239   0.05281  -0.5351810000
O          O       0.31766   0.24327   0.05280  -0.5352120000
O          O       0.75679   0.31769   0.05279  -0.5350000000
O          O       0.68240   0.24331   0.94721  -0.5352620000
O          O       0.75675   0.68237   0.94722  -0.5351750000
O          O       0.31768   0.75678   0.94723  -0.5347760000
O          O       0.24327   0.31765   0.94722  -0.5351770000
O          O       0.05280   0.68236   0.75676  -0.5349110000
O          O       0.31769   0.05279   0.75678  -0.5348160000
O          O       0.94723   0.31768   0.75678  -0.5347810000
O          O       0.68237   0.94722   0.75675  -0.5349820000
O          O       0.05280   0.31766   0.24327  -0.5351960000
O          O       0.68239   0.05281   0.24330  -0.5353560000
O          O       0.94721   0.68240   0.24331  -0.5352420000
O          O       0.31765   0.94722   0.24327  -0.5353550000
O          O       0.75676   0.05280   0.68236  -0.5348780000
O          O       0.75678   0.94723   0.31768  -0.5348720000
O          O       0.05279   0.75679   0.31769  -0.5349710000
O          O       0.24327   0.05280   0.31766  -0.5352090000
O          O       0.94722   0.24327   0.31765  -0.5353740000
O          O       0.24331   0.94721   0.68240  -0.5350340000
O          O       0.05281   0.24330   0.68239  -0.5352600000
O          O       0.94722   0.75675   0.68237  -0.5349290000
O          O       0.31765   0.74328   0.44721  -0.5353180000
O          O       0.75678   0.81769   0.44722  -0.5348010000
O          O       0.68237   0.25674   0.44721  -0.5350520000
O          O       0.24331   0.18239   0.44720  -0.5353750000
O          O       0.31769   0.25678   0.55280  -0.5351300000
O          O       0.24327   0.81766   0.55281  -0.5351720000
O          O       0.68239   0.74331   0.55282  -0.5354720000
O          O       0.75676   0.18235   0.55281  -0.5351070000
O          O       0.94722   0.81766   0.74328  -0.5355670000
O          O       0.68240   0.44720   0.74332  -0.5354860000
O          O       0.05281   0.18238   0.74330  -0.5358320000
O          O       0.31766   0.55281   0.74328  -0.5352990000
O          O       0.94722   0.18236   0.25674  -0.5352040000
O          O       0.31768   0.44722   0.25677  -0.5347840000
O          O       0.05279   0.81769   0.25678  -0.5352500000
O          O       0.68236   0.55281   0.25675  -0.5350750000
O          O       0.24327   0.44721   0.81766  -0.5352450000
O          O       0.24330   0.55282   0.18238  -0.5353790000
O          O       0.94721   0.74332   0.18239  -0.5356540000
O          O       0.75675   0.44721   0.18236  -0.5349930000
O          O       0.05280   0.25675   0.18235  -0.5350780000
O          O       0.75679   0.55280   0.81769  -0.5352560000
O          O       0.94723   0.25677   0.81769  -0.5351430000
O          O       0.05280   0.74328   0.81766  -0.5354510000
O          O       0.68236   0.25675   0.55281  -0.5351010000
O          O       0.24330   0.18238   0.55282  -0.5354750000
O          O       0.31766   0.74328   0.55281  -0.5352210000
O          O       0.75679   0.81769   0.55280  -0.5351110000
O          O       0.68240   0.74332   0.44720  -0.5354890000
O          O       0.75675   0.18236   0.44721  -0.5350310000
O          O       0.31768   0.25677   0.44722  -0.5348070000
O          O       0.24327   0.81766   0.44721  -0.5352270000
O          O       0.05280   0.18235   0.25675  -0.5350780000
O          O       0.31769   0.55280   0.25678  -0.5349750000
O          O       0.94723   0.81769   0.25677  -0.5348870000
O          O       0.68237   0.44721   0.25674  -0.5350460000
O          O       0.05280   0.81767   0.74328  -0.5354510000
O          O       0.68239   0.55282   0.74330  -0.5355650000
O          O       0.94721   0.18239   0.74332  -0.5357580000
O          O       0.31765   0.44721   0.74328  -0.5353380000
O          O       0.75676   0.55281   0.18235  -0.5350830000
O          O       0.75678   0.44722   0.81769  -0.5348700000
O          O       0.05279   0.25678   0.81769  -0.5353690000
O          O       0.24327   0.55281   0.81766  -0.5352670000
O          O       0.94722   0.74328   0.81766  -0.5355670000
O          O       0.24331   0.44720   0.18239  -0.5352970000
O          O       0.05281   0.74330   0.18238  -0.5357180000
O          O       0.94722   0.25674   0.18236  -0.5351800000
O          O       0.81766   0.24327   0.44721  -0.5352860000
O          O       0.25677   0.31768   0.44722  -0.5348220000
O          O       0.18236   0.75675   0.44721  -0.5350860000
O          O       0.74332   0.68240   0.44720  -0.5352340000
O          O       0.81770   0.75679   0.55280  -0.5349370000
O          O       0.74328   0.31766   0.55281  -0.5352630000
O          O       0.18238   0.24330   0.55282  -0.5355030000
O          O       0.25675   0.68236   0.55281  -0.5351600000
O          O       0.44721   0.31765   0.74328  -0.5353320000
O          O       0.18240   0.94721   0.74332  -0.5359090000
O          O       0.55282   0.68239   0.74330  -0.5355750000
O          O       0.81767   0.05280   0.74328  -0.5354010000
O          O       0.44721   0.68237   0.25674  -0.5349780000
O          O       0.81769   0.94723   0.25677  -0.5349220000
O          O       0.55280   0.31769   0.25678  -0.5350940000
O          O       0.18235   0.05280   0.25675  -0.5350850000
O          O       0.74328   0.94722   0.81766  -0.5354290000
O          O       0.74330   0.05281   0.18238  -0.5356280000
O          O       0.44720   0.24331   0.18239  -0.5352980000
O          O       0.25674   0.94722   0.18236  -0.5353450000
O          O       0.55281   0.75676   0.18235  -0.5349660000
O          O       0.25678   0.05279   0.81769  -0.5353970000
O          O       0.44722   0.75678   0.81769  -0.5348110000
O          O       0.55281   0.24327   0.81766  -0.5353730000
O          O       0.18236   0.75676   0.55281  -0.5351660000
O          O       0.74331   0.68239   0.55282  -0.5353270000
O          O       0.81767   0.24327   0.55281  -0.5352790000
O          O       0.25678   0.31769   0.55280  -0.5352060000
O          O       0.18239   0.24331   0.44720  -0.5354350000
O          O       0.25674   0.68237   0.44721  -0.5351010000
O          O       0.81769   0.75678   0.44722  -0.5347270000
O          O       0.74328   0.31765   0.44721  -0.5353450000
O          O       0.55281   0.68236   0.25675  -0.5349630000
O          O       0.81769   0.05279   0.25678  -0.5352290000
O          O       0.44722   0.31768   0.25677  -0.5347460000
O          O       0.18236   0.94722   0.25674  -0.5352610000
O          O       0.55281   0.31766   0.74328  -0.5353200000
O          O       0.18238   0.05281   0.74330  -0.5358460000
O          O       0.44720   0.68240   0.74332  -0.5354590000
O          O       0.81766   0.94722   0.74328  -0.5355060000
O          O       0.25675   0.05280   0.18235  -0.5350690000
O          O       0.25677   0.94723   0.81769  -0.5354260000
O          O       0.55280   0.75679   0.81769  -0.5352150000
O          O       0.74328   0.05280   0.81766  -0.5354550000
O          O       0.44721   0.24327   0.81766  -0.5352790000
O          O       0.74332   0.94721   0.18239  -0.5354650000
O          O       0.55282   0.24330   0.18238  -0.5354000000
O          O       0.44721   0.75675   0.18236  -0.5348790000
O          O       0.81766   0.74328   0.94722  -0.5353750000
O          O       0.25677   0.81769   0.94723  -0.5353260000
O          O       0.18236   0.25674   0.94722  -0.5353510000
O          O       0.74332   0.18239   0.94721  -0.5355550000
O          O       0.81769   0.25678   0.05279  -0.5352590000
O          O       0.74328   0.81766   0.05280  -0.5354520000
O          O       0.18238   0.74330   0.05281  -0.5357270000
O          O       0.25675   0.18235   0.05280  -0.5350830000
O          O       0.44721   0.81766   0.24327  -0.5353370000
O          O       0.18239   0.44720   0.24331  -0.5354480000
O          O       0.55282   0.18238   0.24330  -0.5354770000
O          O       0.81767   0.55281   0.24327  -0.5354040000
O          O       0.44721   0.18236   0.75675  -0.5348950000
O          O       0.81769   0.44722   0.75678  -0.5346990000
O          O       0.55280   0.81769   0.75678  -0.5351030000
O          O       0.18236   0.55281   0.75676  -0.5351270000
O          O       0.74328   0.44721   0.31765  -0.5353540000
O          O       0.74331   0.55282   0.68239  -0.5352620000
O          O       0.44720   0.74332   0.68240  -0.5352390000
O          O       0.25674   0.44721   0.68237  -0.5350880000
O          O       0.55281   0.25675   0.68236  -0.5349930000
O          O       0.25678   0.55280   0.31769  -0.5352420000
O          O       0.44722   0.25677   0.31768  -0.5347980000
O          O       0.55281   0.74328   0.31766  -0.5353600000
O          O       0.18235   0.25675   0.05280  -0.5350900000
O          O       0.74330   0.18238   0.05281  -0.5355940000
O          O       0.81767   0.74328   0.05280  -0.5354200000
O          O       0.25678   0.81769   0.05279  -0.5353920000
O          O       0.18240   0.74332   0.94721  -0.5357190000
O          O       0.25674   0.18236   0.94722  -0.5353530000
O          O       0.81769   0.25677   0.94723  -0.5351730000
O          O       0.74328   0.81766   0.94722  -0.5353740000
O          O       0.55281   0.18235   0.75676  -0.5350940000
O          O       0.81770   0.55280   0.75678  -0.5348520000
O          O       0.44722   0.81769   0.75678  -0.5347420000
O          O       0.18236   0.44721   0.75675  -0.5349480000
O          O       0.55281   0.81766   0.24327  -0.5353860000
O          O       0.18238   0.55282   0.24330  -0.5355460000
O          O       0.44720   0.18239   0.24331  -0.5353350000
O          O       0.81766   0.44721   0.24327  -0.5353430000
O          O       0.25675   0.55281   0.68236  -0.5350830000
O          O       0.25677   0.44722   0.31768  -0.5348590000
O          O       0.55280   0.25678   0.31769  -0.5351570000
O          O       0.74328   0.55281   0.31766  -0.5353890000
O          O       0.44721   0.74328   0.31765  -0.5354180000
O          O       0.74332   0.44720   0.68240  -0.5351210000
O          O       0.55282   0.74331   0.68239  -0.5353780000
O          O       0.44721   0.25674   0.68237  -0.5350840000
